                                  MODFLOW-2005     
      U.S. GEOLOGICAL SURVEY MODULAR FINITE-DIFFERENCE GROUND-WATER FLOW MODEL
                            VERSION 1.5.00 4/28/2008

 LIST FILE: EXAMPLE.LST
                         UNIT    2

 OPENING EXAMPLE.DIS
 FILE TYPE:DIS   UNIT    3   STATUS:OLD    
 FORMAT:FORMATTED              ACCESS:SEQUENTIAL          

 OPENING EXAMPLE.BA6
 FILE TYPE:BAS6   UNIT    4   STATUS:OLD    
 FORMAT:FORMATTED              ACCESS:SEQUENTIAL          

 OPENING EXAMPLE.WEL
 FILE TYPE:WEL   UNIT   12   STATUS:OLD    
 FORMAT:FORMATTED              ACCESS:SEQUENTIAL          

 OPENING EXAMPLE.RIV
 FILE TYPE:RIV   UNIT   14   STATUS:OLD    
 FORMAT:FORMATTED              ACCESS:SEQUENTIAL          

 OPENING EXAMPLE.RCH
 FILE TYPE:RCH   UNIT   18   STATUS:OLD    
 FORMAT:FORMATTED              ACCESS:SEQUENTIAL          

 OPENING EXAMPLE.OC
 FILE TYPE:OC   UNIT   22   STATUS:OLD    
 FORMAT:FORMATTED              ACCESS:SEQUENTIAL          

 OPENING EXAMPLE.PCG
 FILE TYPE:PCG   UNIT   23   STATUS:OLD    
 FORMAT:FORMATTED              ACCESS:SEQUENTIAL          

 OPENING EXAMPLE.LPF
 FILE TYPE:LPF   UNIT   33   STATUS:OLD    
 FORMAT:FORMATTED              ACCESS:SEQUENTIAL          

 OPENING EXAMPLE.HED
 FILE TYPE:DATA(BINARY)   UNIT   50   STATUS:UNKNOWN
 FORMAT:BINARY                 ACCESS:SEQUENTIAL          

 OPENING EXAMPLE.BUD
 FILE TYPE:DATA(BINARY)   UNIT   53   STATUS:UNKNOWN
 FORMAT:BINARY                 ACCESS:SEQUENTIAL          

 BAS -- BASIC PACKAGE, VERSION 7, 5/2/2005 INPUT READ FROM UNIT    4

 DISCRETIZATION INPUT DATA READ FROM UNIT    3
    5 LAYERS        25 ROWS        25 COLUMNS
    3 STRESS PERIOD(S) IN SIMULATION
 MODEL TIME UNIT IS DAYS
 MODEL LENGTH UNIT IS FEET
  Confining bed flag for each layer:
   0   0   0   0   0

                     DELR =   400.000    

                     DELC =   400.000    

 TOP ELEVATION OF LAYER 1 =   400.000    

   MODEL LAYER BOTTOM EL. =   270.000     FOR LAYER   1

   MODEL LAYER BOTTOM EL. =   220.000     FOR LAYER   2

   MODEL LAYER BOTTOM EL. =   200.000     FOR LAYER   3

   MODEL LAYER BOTTOM EL. =   100.000     FOR LAYER   4

   MODEL LAYER BOTTOM EL. =   0.00000     FOR LAYER   5


 STRESS PERIOD     LENGTH       TIME STEPS     MULTIPLIER FOR DELT    SS FLAG
 ----------------------------------------------------------------------------
        1         200000.0          1                    1.000         SS
        2         10000.00         10                    1.500         TR
        3         200000.0          1                    1.000         SS

 COMBINED STEADY-STATE AND TRANSIENT SIMULATION



 
 THE FREE FORMAT OPTION HAS BEEN SELECTED

           BOUNDARY ARRAY =              1 FOR LAYER   1

           BOUNDARY ARRAY =              1 FOR LAYER   2

           BOUNDARY ARRAY =              1 FOR LAYER   3

           BOUNDARY ARRAY =              1 FOR LAYER   4

           BOUNDARY ARRAY =              1 FOR LAYER   5

 AQUIFER HEAD WILL BE SET TO 1.00000E+30 AT ALL NO-FLOW NODES (IBOUND=0).

             INITIAL HEAD =   320.000     FOR LAYER   1

             INITIAL HEAD =   320.000     FOR LAYER   2

             INITIAL HEAD =   320.000     FOR LAYER   3

             INITIAL HEAD =   320.000     FOR LAYER   4

             INITIAL HEAD =   320.000     FOR LAYER   5

 OUTPUT CONTROL IS SPECIFIED ONLY AT TIME STEPS FOR WHICH OUTPUT IS DESIRED
 COMPACT CELL-BY-CELL BUDGET FILES WILL BE WRITTEN
 AUXILIARY DATA WILL BE SAVED IN CELL-BY-CELL BUDGET FILES
 HEAD PRINT FORMAT CODE IS   0    DRAWDOWN PRINT FORMAT CODE IS   0
 HEADS WILL BE SAVED ON UNIT   50    DRAWDOWNS WILL BE SAVED ON UNIT    0

 LPF -- LAYER-PROPERTY FLOW PACKAGE, VERSION 7, 5/2/2005
         INPUT READ FROM UNIT   33
 CELL-BY-CELL FLOWS WILL BE SAVED ON UNIT   53
 HEAD AT CELLS THAT CONVERT TO DRY=  1.00000E+20
 No named parameters

   LAYER FLAGS:
 LAYER       LAYTYP        LAYAVG         CHANI        LAYVKA        LAYWET
 ---------------------------------------------------------------------------
    1             1             0     1.000E+00             0             0
    2             0             0     1.000E+00             0             0
    3             0             0     1.000E+00             0             0
    4             0             0     1.000E+00             0             0
    5             0             0     1.000E+00             0             0

   INTERPRETATION OF LAYER FLAGS:
                        INTERBLOCK     HORIZONTAL    DATA IN
         LAYER TYPE   TRANSMISSIVITY   ANISOTROPY   ARRAY VKA   WETTABILITY
 LAYER      (LAYTYP)      (LAYAVG)       (CHANI)      (LAYVKA)      (LAYWET)
 ---------------------------------------------------------------------------
    1   CONVERTIBLE      HARMONIC     1.000E+00    VERTICAL K  NON-WETTABLE
    2      CONFINED      HARMONIC     1.000E+00    VERTICAL K  NON-WETTABLE
    3      CONFINED      HARMONIC     1.000E+00    VERTICAL K  NON-WETTABLE
    4      CONFINED      HARMONIC     1.000E+00    VERTICAL K  NON-WETTABLE
    5      CONFINED      HARMONIC     1.000E+00    VERTICAL K  NON-WETTABLE

 WETTING CAPABILITY IS NOT ACTIVE IN ANY LAYER

    HYD. COND. ALONG ROWS =   50.0000     FOR LAYER   1

      VERTICAL HYD. COND. =   10.0000     FOR LAYER   1

         SPECIFIC STORAGE =  1.000000E-04 FOR LAYER   1

           SPECIFIC YIELD =  0.200000     FOR LAYER   1

    HYD. COND. ALONG ROWS =   50.0000     FOR LAYER   2

      VERTICAL HYD. COND. =   10.0000     FOR LAYER   2

         SPECIFIC STORAGE =  1.000000E-04 FOR LAYER   2

    HYD. COND. ALONG ROWS =  1.000000E-02 FOR LAYER   3

      VERTICAL HYD. COND. =  1.000000E-02 FOR LAYER   3

         SPECIFIC STORAGE =  1.000000E-04 FOR LAYER   3

    HYD. COND. ALONG ROWS =   200.000     FOR LAYER   4

      VERTICAL HYD. COND. =   20.0000     FOR LAYER   4

         SPECIFIC STORAGE =  1.000000E-04 FOR LAYER   4

    HYD. COND. ALONG ROWS =   200.000     FOR LAYER   5

      VERTICAL HYD. COND. =   20.0000     FOR LAYER   5

         SPECIFIC STORAGE =  1.000000E-04 FOR LAYER   5

 WEL -- WELL PACKAGE, VERSION 7, 5/2/2005 INPUT READ FROM UNIT   12
 No named parameters
 MAXIMUM OF      1 ACTIVE WELLS AT ONE TIME
 CELL-BY-CELL FLOWS WILL BE SAVED ON UNIT   53
 AUXILIARY WELL VARIABLE: IFACE           


     0 Well parameters

 RIV -- RIVER PACKAGE, VERSION 7, 5/2/2005 INPUT READ FROM UNIT   14
 No named parameters
 MAXIMUM OF     25 ACTIVE RIVER REACHES AT ONE TIME
 CELL-BY-CELL FLOWS WILL BE SAVED ON UNIT   53
 AUXILIARY RIVER VARIABLE: IFACE           


     0 River parameters

 RCH -- RECHARGE PACKAGE, VERSION 7, 5/2/2005 INPUT READ FROM UNIT   18
 No named parameters
 OPTION 1 -- RECHARGE TO TOP LAYER
 CELL-BY-CELL FLOWS WILL BE SAVED ON UNIT   53


     0 Recharge parameters

 PCG -- CONJUGATE-GRADIENT SOLUTION PACKAGE, VERSION 7, 5/2/2005
 MAXIMUM OF     15 CALLS OF SOLUTION ROUTINE
 MAXIMUM OF     20 INTERNAL ITERATIONS PER CALL TO SOLUTION ROUTINE
 MATRIX PRECONDITIONING TYPE :    1



                                    SOLUTION BY THE CONJUGATE-GRADIENT METHOD
                                   -------------------------------------------
                    MAXIMUM NUMBER OF CALLS TO PCG ROUTINE =       15
                        MAXIMUM ITERATIONS PER CALL TO PCG =       20
                               MATRIX PRECONDITIONING TYPE =        1
        RELAXATION FACTOR (ONLY USED WITH PRECOND. TYPE 1) =    0.10000E+01
 PARAMETER OF POLYNOMIAL PRECOND. = 2 (2) OR IS CALCULATED :        2
                         HEAD CHANGE CRITERION FOR CLOSURE =    0.10000E-03
                     RESIDUAL CHANGE CRITERION FOR CLOSURE =    0.10000E+04
            PCG HEAD AND RESIDUAL CHANGE PRINTOUT INTERVAL =        1
     PRINTING FROM SOLVER IS LIMITED(1) OR SUPPRESSED (>1) =        0
                                         DAMPING PARAMETER =    0.10000E+01
1
                            STRESS PERIOD NO.    1, LENGTH =   200000.0    
                            -----------------------------------------------

                              NUMBER OF TIME STEPS =     1

                               MULTIPLIER FOR DELT =     1.000

                            INITIAL TIME STEP SIZE =   200000.0    

      0 WELLS

 REACH NO.  LAYER   ROW   COL     STAGE      CONDUCTANCE     BOTTOM EL.         IFACE           
 -----------------------------------------------------------------------------------------------
      1      1      1     25       320.0          0.1000E+06       315.0           6.000    
      2      1      2     25       320.0          0.1000E+06       315.0           6.000    
      3      1      3     25       320.0          0.1000E+06       315.0           6.000    
      4      1      4     25       320.0          0.1000E+06       315.0           6.000    
      5      1      5     25       320.0          0.1000E+06       315.0           6.000    
      6      1      6     25       320.0          0.1000E+06       315.0           6.000    
      7      1      7     25       320.0          0.1000E+06       315.0           6.000    
      8      1      8     25       320.0          0.1000E+06       315.0           6.000    
      9      1      9     25       320.0          0.1000E+06       315.0           6.000    
     10      1     10     25       320.0          0.1000E+06       315.0           6.000    
     11      1     11     25       320.0          0.1000E+06       315.0           6.000    
     12      1     12     25       320.0          0.1000E+06       315.0           6.000    
     13      1     13     25       320.0          0.1000E+06       315.0           6.000    
     14      1     14     25       320.0          0.1000E+06       315.0           6.000    
     15      1     15     25       320.0          0.1000E+06       315.0           6.000    
     16      1     16     25       320.0          0.1000E+06       315.0           6.000    
     17      1     17     25       320.0          0.1000E+06       315.0           6.000    
     18      1     18     25       320.0          0.1000E+06       315.0           6.000    
     19      1     19     25       320.0          0.1000E+06       315.0           6.000    
     20      1     20     25       320.0          0.1000E+06       315.0           6.000    
     21      1     21     25       320.0          0.1000E+06       315.0           6.000    
     22      1     22     25       320.0          0.1000E+06       315.0           6.000    
     23      1     23     25       320.0          0.1000E+06       315.0           6.000    
     24      1     24     25       320.0          0.1000E+06       315.0           6.000    
     25      1     25     25       320.0          0.1000E+06       315.0           6.000    

     25 RIVER REACHES

                 RECHARGE =  5.000000E-03
 
 SOLVING FOR HEAD 


     5 CALLS TO PCG ROUTINE FOR TIME STEP   1 IN STRESS PERIOD    1
    72 TOTAL ITERATIONS

 MAXIMUM HEAD CHANGE FOR EACH ITERATION (1 INDICATES THE FIRST INNER ITERATION):

    HEAD CHANGE    HEAD CHANGE    HEAD CHANGE    HEAD CHANGE    HEAD CHANGE 
   LAYER,ROW,COL  LAYER,ROW,COL  LAYER,ROW,COL  LAYER,ROW,COL  LAYER,ROW,COL
 ---------------------------------------------------------------------------
  1   14.34      0   7.897      0   6.101      0   3.691      0   2.938    
   (  2, 25,  8)  (  2,  3,  7)  (  3, 25,  2)  (  1,  2, 14)  (  1,  1, 15)
  0   3.030      0  -1.860      0   1.534      0  -1.469      0 -0.6273    
   (  2,  1, 18)  (  3, 25, 24)  (  1,  3,  6)  (  3,  6, 24)  (  2,  2, 22)
  0 -0.4234      0 -0.3210      0  0.2928      0  0.2816      0 -0.1058    
   (  2,  1, 22)  (  2,  1, 23)  (  3, 25, 24)  (  3, 25, 24)  (  3, 24, 14)
  0  0.1499      0 -0.9522E-01  0  0.7683E-01  0 -0.3694E-01  0  0.2680E-01
   (  3, 25, 24)  (  2, 25,  5)  (  3,  2, 24)  (  2, 25,  4)  (  3,  1, 24)
  1  -1.055      0 -0.5603      0 -0.3904      0 -0.2965      0 -0.2740    
   (  2, 25,  8)  (  2,  4,  7)  (  3, 25,  2)  (  2,  1, 12)  (  2,  1, 14)
  0 -0.2606      0 -0.1625      0  0.8184E-01  0  0.7960E-01  0 -0.6591E-01
   (  2,  1, 17)  (  3,  1,  1)  (  3, 24, 24)  (  3,  6, 24)  (  1, 25,  6)
  0  0.2756E-01  0 -0.1554E-01  0 -0.1135E-01  0  0.1220E-01  0 -0.1205E-01
   (  2,  1, 21)  (  1,  3, 21)  (  1,  3, 22)  (  2, 25,  7)  (  3, 25,  3)
  0  0.8413E-02  0  0.7419E-02  0  0.3218E-02  0  0.2146E-02  0  0.2110E-02
   (  3, 24, 13)  (  2, 25,  4)  (  2, 18, 14)  (  3, 25,  3)  (  2, 25,  2)
  1  0.5179E-01  0  0.2400E-01  0  0.1893E-01  0  0.1352E-01  0  0.1349E-01
   (  2, 25,  8)  (  2,  3,  6)  (  3, 25,  2)  (  2,  1, 11)  (  2,  1, 11)
  0  0.1178E-01  0  0.7543E-02  0  0.3870E-02  0  0.3538E-02  0  0.2514E-02
   (  2,  1, 16)  (  3,  2,  2)  (  3, 14,  1)  (  3,  2,  1)  (  1, 25,  7)
  0  0.1483E-02  0  0.8979E-03  0  0.6176E-03  0  0.6385E-03  0 -0.5502E-03
   (  1,  4, 19)  (  2,  4, 21)  (  2,  3, 22)  (  3, 25,  4)  (  3, 24, 12)
  0  0.5496E-03  0 -0.4550E-03  0  0.1641E-03  0 -0.1082E-03  0 -0.9576E-04
   (  2, 22,  2)  (  2, 25,  4)  (  3,  1, 20)  (  3, 25,  3)  (  2, 25,  2)
  1 -0.1891E-02  0 -0.7616E-03  0 -0.6837E-03  0 -0.4250E-03  0 -0.4354E-03
   (  2, 25,  7)  (  2, 25,  5)  (  2,  2,  4)  (  2,  1,  8)  (  2,  1,  9)
  0 -0.3574E-03  0 -0.3072E-03  0 -0.1882E-03  0 -0.1400E-03  0 -0.1052E-03
   (  2, 20,  1)  (  3, 15,  1)  (  1, 25, 10)  (  3,  2,  1)  (  3, 22,  1)
  0 -0.6442E-04  1  0.7684E-04
   (  2,  5, 20)  (  2, 25,  9)

 MAXIMUM RESIDUAL FOR EACH ITERATION (1 INDICATES THE FIRST INNER ITERATION):

    RESIDUAL       RESIDUAL       RESIDUAL       RESIDUAL       RESIDUAL    
   LAYER,ROW,COL  LAYER,ROW,COL  LAYER,ROW,COL  LAYER,ROW,COL  LAYER,ROW,COL
 ---------------------------------------------------------------------------
  1   9220.      0  0.1075E+05  0  0.1127E+05  0  0.1207E+05  0  0.1039E+05
   (  5, 25, 23)  (  2, 25, 24)  (  2, 25, 24)  (  2, 25, 24)  (  2, 25, 24)
  0  -8528.      0  -8289.      0   8399.      0   8044.      0   6696.    
   (  1,  6, 25)  (  1,  4, 25)  (  2,  3, 24)  (  2,  2, 24)  (  2,  2, 24)
  0   4693.      0   3315.      0   1910.      0   1182.      0   1030.    
   (  2,  2, 24)  (  2,  1, 24)  (  2,  1, 24)  (  2,  3, 22)  (  2,  3, 22)
  0   771.5      0   519.6      0   364.9      0  -198.4      0  -164.9    
   (  2,  2, 22)  (  2,  2, 22)  (  2,  2, 23)  (  1,  2, 25)  (  1,  1, 25)
  1  -636.7      0  -715.7      0  -547.6      0  -513.6      0  -480.9    
   (  5, 25, 23)  (  2, 25, 21)  (  2, 25, 22)  (  2, 25, 21)  (  5, 25, 15)
  0  -503.1      0  -545.8      0  -495.0      0  -415.2      0  -325.8    
   (  2,  3, 20)  (  2,  2, 20)  (  2,  2, 21)  (  2,  1, 20)  (  2,  1, 21)
  0   225.9      0   152.0      0  -105.7      0  -86.03      0  -77.62    
   (  1,  2, 20)  (  1,  2, 21)  (  2,  3, 21)  (  2,  3, 21)  (  2,  3, 22)
  0  -55.89      0  -36.37      0  -20.09      0  -13.05      0  -10.08    
   (  2,  2, 21)  (  2,  2, 22)  (  2,  2, 22)  (  5, 25, 22)  (  5, 25, 22)
  1   28.32      0   33.71      0   23.26      0   23.85      0   26.77    
   (  5, 25, 23)  (  2, 25, 20)  (  2, 25, 19)  (  2, 25, 19)  (  5, 25, 15)
  0   23.31      0   23.26      0   20.10      0   17.31      0  -13.64    
   (  2,  2, 17)  (  2,  2, 19)  (  2,  1, 17)  (  2,  1, 18)  (  1,  2, 18)
  0  -9.661      0  -5.976      0   4.278      0   3.336      0   2.931    
   (  1,  2, 19)  (  1,  2, 20)  (  2, 25, 15)  (  2,  3, 21)  (  2,  3, 22)
  0   2.228      0   1.463      0  0.7154      0  0.6363      0  0.4781    
   (  2,  3, 22)  (  2,  3, 23)  (  2,  3, 23)  (  5, 25, 20)  (  5, 25, 21)
  1  -1.044      0  -1.213      0 -0.8152      0 -0.8225      0 -0.9798    
   (  5, 25, 23)  (  2, 25, 18)  (  2, 25, 17)  (  2, 25, 17)  (  5, 25, 14)
  0 -0.7911      0 -0.7385      0  0.6841      0  0.5966      0  0.4506    
   (  2,  2, 15)  (  2,  2, 16)  (  1,  2, 14)  (  1,  2, 15)  (  1,  2, 16)
  0  0.2994      1  0.2921    
   (  1,  2, 17)  (  1,  2, 16)



 OUTPUT CONTROL FOR STRESS PERIOD    1   TIME STEP   1
    PRINT BUDGET
    SAVE BUDGET
    PRINT HEAD FOR ALL LAYERS
    SAVE HEAD FOR ALL LAYERS
 UBDSV2 SAVING "   CONSTANT HEAD" ON UNIT  53 AT TIME STEP  1, STRESS PERIOD   1
 UBDSV1 SAVING "FLOW RIGHT FACE " ON UNIT  53 AT TIME STEP  1, STRESS PERIOD   1
 UBDSV1 SAVING "FLOW FRONT FACE " ON UNIT  53 AT TIME STEP  1, STRESS PERIOD   1
 UBDSV1 SAVING "FLOW LOWER FACE " ON UNIT  53 AT TIME STEP  1, STRESS PERIOD   1
 UBDSV4 SAVING "           WELLS" ON UNIT  53 AT TIME STEP  1, STRESS PERIOD   1
 UBDSV4 SAVING "   RIVER LEAKAGE" ON UNIT  53 AT TIME STEP  1, STRESS PERIOD   1
 UBDSV3 SAVING "        RECHARGE" ON UNIT  53 AT TIME STEP  1, STRESS PERIOD   1
1
              HEAD IN LAYER   1 AT END OF TIME STEP   1 IN STRESS PERIOD    1
  ---------------------------------------------------------------------------

            1           2           3           4           5           6           7           8           9          10
           11          12          13          14          15          16          17          18          19          20
           21          22          23          24          25
 ........................................................................................................................
   1    346.8       346.7       346.6       346.5       346.3       346.0       345.7       345.4       344.9       344.4    
        343.9       343.2       342.5       341.6       340.7       339.6       338.4       337.0       335.5       333.7    
        331.7       329.5       326.8       323.8       320.2    
   2    346.8       346.7       346.6       346.5       346.3       346.0       345.7       345.4       344.9       344.4    
        343.9       343.2       342.5       341.6       340.7       339.6       338.4       337.0       335.5       333.7    
        331.7       329.5       326.8       323.8       320.2    
   3    346.8       346.7       346.6       346.5       346.3       346.0       345.7       345.4       344.9       344.4    
        343.9       343.2       342.5       341.6       340.7       339.6       338.4       337.0       335.5       333.7    
        331.7       329.5       326.8       323.8       320.2    
   4    346.8       346.7       346.6       346.5       346.3       346.0       345.7       345.4       344.9       344.4    
        343.9       343.2       342.5       341.6       340.7       339.6       338.4       337.0       335.5       333.7    
        331.7       329.5       326.8       323.8       320.2    
   5    346.8       346.7       346.6       346.5       346.3       346.0       345.7       345.4       344.9       344.4    
        343.9       343.2       342.5       341.6       340.7       339.6       338.4       337.0       335.5       333.7    
        331.7       329.5       326.8       323.8       320.2    
   6    346.8       346.7       346.6       346.5       346.3       346.0       345.7       345.4       344.9       344.4    
        343.9       343.2       342.5       341.6       340.7       339.6       338.4       337.0       335.5       333.7    
        331.7       329.5       326.8       323.8       320.2    
   7    346.8       346.7       346.6       346.5       346.3       346.0       345.7       345.4       344.9       344.4    
        343.9       343.2       342.5       341.6       340.7       339.6       338.4       337.0       335.5       333.7    
        331.7       329.5       326.8       323.8       320.2    
   8    346.8       346.7       346.6       346.5       346.3       346.0       345.7       345.4       344.9       344.4    
        343.9       343.2       342.5       341.6       340.7       339.6       338.4       337.0       335.5       333.7    
        331.7       329.5       326.8       323.8       320.2    
   9    346.8       346.7       346.6       346.5       346.3       346.0       345.7       345.4       344.9       344.4    
        343.9       343.2       342.5       341.6       340.7       339.6       338.4       337.0       335.5       333.7    
        331.7       329.5       326.8       323.8       320.2    
  10    346.8       346.7       346.6       346.5       346.3       346.0       345.7       345.4       344.9       344.4    
        343.9       343.2       342.5       341.6       340.7       339.6       338.4       337.0       335.5       333.7    
        331.7       329.5       326.8       323.8       320.2    
  11    346.8       346.7       346.6       346.5       346.3       346.0       345.7       345.4       344.9       344.4    
        343.9       343.2       342.5       341.6       340.7       339.6       338.4       337.0       335.5       333.7    
        331.7       329.5       326.8       323.8       320.2    
  12    346.8       346.7       346.6       346.5       346.3       346.0       345.7       345.4       344.9       344.4    
        343.9       343.2       342.5       341.6       340.7       339.6       338.4       337.0       335.5       333.7    
        331.7       329.5       326.8       323.8       320.2    
  13    346.8       346.7       346.6       346.5       346.3       346.0       345.7       345.4       344.9       344.4    
        343.9       343.2       342.5       341.6       340.7       339.6       338.4       337.0       335.5       333.7    
        331.7       329.5       326.8       323.8       320.2    
  14    346.8       346.7       346.6       346.5       346.3       346.0       345.7       345.4       344.9       344.4    
        343.9       343.2       342.5       341.6       340.7       339.6       338.4       337.0       335.5       333.7    
        331.7       329.5       326.8       323.8       320.2    
  15    346.8       346.7       346.6       346.5       346.3       346.0       345.7       345.4       344.9       344.4    
        343.9       343.2       342.5       341.6       340.7       339.6       338.4       337.0       335.5       333.7    
        331.7       329.5       326.8       323.8       320.2    
  16    346.8       346.7       346.6       346.5       346.3       346.0       345.7       345.4       344.9       344.4    
        343.9       343.2       342.5       341.6       340.7       339.6       338.4       337.0       335.5       333.7    
        331.7       329.5       326.8       323.8       320.2    
  17    346.8       346.7       346.6       346.5       346.3       346.0       345.7       345.4       344.9       344.4    
        343.9       343.2       342.5       341.6       340.7       339.6       338.4       337.0       335.5       333.7    
        331.7       329.5       326.8       323.8       320.2    
  18    346.8       346.7       346.6       346.5       346.3       346.0       345.7       345.4       344.9       344.4    
        343.9       343.2       342.5       341.6       340.7       339.6       338.4       337.0       335.5       333.7    
        331.7       329.5       326.8       323.8       320.2    
  19    346.8       346.7       346.6       346.5       346.3       346.0       345.7       345.4       344.9       344.4    
        343.9       343.2       342.5       341.6       340.7       339.6       338.4       337.0       335.5       333.7    
        331.7       329.5       326.8       323.8       320.2    
  20    346.8       346.7       346.6       346.5       346.3       346.0       345.7       345.4       344.9       344.4    
        343.9       343.2       342.5       341.6       340.7       339.6       338.4       337.0       335.5       333.7    
        331.7       329.5       326.8       323.8       320.2    
  21    346.8       346.7       346.6       346.5       346.3       346.0       345.7       345.4       344.9       344.4    
        343.9       343.2       342.5       341.6       340.7       339.6       338.4       337.0       335.5       333.7    
        331.7       329.5       326.8       323.8       320.2    
  22    346.8       346.7       346.6       346.5       346.3       346.0       345.7       345.4       344.9       344.4    
        343.9       343.2       342.5       341.6       340.7       339.6       338.4       337.0       335.5       333.7    
        331.7       329.5       326.8       323.8       320.2    
  23    346.8       346.7       346.6       346.5       346.3       346.0       345.7       345.4       344.9       344.4    
        343.9       343.2       342.5       341.6       340.7       339.6       338.4       337.0       335.5       333.7    
        331.7       329.5       326.8       323.8       320.2    
  24    346.8       346.7       346.6       346.5       346.3       346.0       345.7       345.4       344.9       344.4    
        343.9       343.2       342.5       341.6       340.7       339.6       338.4       337.0       335.5       333.7    
        331.7       329.5       326.8       323.8       320.2    
  25    346.8       346.7       346.6       346.5       346.3       346.0       345.7       345.4       344.9       344.4    
        343.9       343.2       342.5       341.6       340.7       339.6       338.4       337.0       335.5       333.7    
        331.7       329.5       326.8       323.8       320.2    
1
              HEAD IN LAYER   2 AT END OF TIME STEP   1 IN STRESS PERIOD    1
  ---------------------------------------------------------------------------

            1           2           3           4           5           6           7           8           9          10
           11          12          13          14          15          16          17          18          19          20
           21          22          23          24          25
 ........................................................................................................................
   1    346.7       346.7       346.6       346.4       346.3       346.0       345.7       345.3       344.9       344.4    
        343.8       343.2       342.5       341.6       340.7       339.6       338.4       337.0       335.5       333.7    
        331.7       329.5       326.8       323.8       320.5    
   2    346.7       346.7       346.6       346.4       346.3       346.0       345.7       345.3       344.9       344.4    
        343.8       343.2       342.5       341.6       340.7       339.6       338.4       337.0       335.5       333.7    
        331.7       329.5       326.8       323.8       320.5    
   3    346.7       346.7       346.6       346.4       346.3       346.0       345.7       345.3       344.9       344.4    
        343.8       343.2       342.5       341.6       340.7       339.6       338.4       337.0       335.5       333.7    
        331.7       329.5       326.8       323.8       320.5    
   4    346.7       346.7       346.6       346.4       346.3       346.0       345.7       345.3       344.9       344.4    
        343.8       343.2       342.5       341.6       340.7       339.6       338.4       337.0       335.5       333.7    
        331.7       329.5       326.8       323.8       320.5    
   5    346.7       346.7       346.6       346.4       346.3       346.0       345.7       345.3       344.9       344.4    
        343.8       343.2       342.5       341.6       340.7       339.6       338.4       337.0       335.5       333.7    
        331.7       329.5       326.8       323.8       320.5    
   6    346.7       346.7       346.6       346.4       346.3       346.0       345.7       345.3       344.9       344.4    
        343.8       343.2       342.5       341.6       340.7       339.6       338.4       337.0       335.5       333.7    
        331.7       329.5       326.8       323.8       320.5    
   7    346.7       346.7       346.6       346.4       346.3       346.0       345.7       345.3       344.9       344.4    
        343.8       343.2       342.5       341.6       340.7       339.6       338.4       337.0       335.5       333.7    
        331.7       329.5       326.8       323.8       320.5    
   8    346.7       346.7       346.6       346.4       346.3       346.0       345.7       345.3       344.9       344.4    
        343.8       343.2       342.5       341.6       340.7       339.6       338.4       337.0       335.5       333.7    
        331.7       329.5       326.8       323.8       320.5    
   9    346.7       346.7       346.6       346.4       346.3       346.0       345.7       345.3       344.9       344.4    
        343.8       343.2       342.5       341.6       340.7       339.6       338.4       337.0       335.5       333.7    
        331.7       329.5       326.8       323.8       320.5    
  10    346.7       346.7       346.6       346.4       346.3       346.0       345.7       345.3       344.9       344.4    
        343.8       343.2       342.5       341.6       340.7       339.6       338.4       337.0       335.5       333.7    
        331.7       329.5       326.8       323.8       320.5    
  11    346.7       346.7       346.6       346.4       346.3       346.0       345.7       345.3       344.9       344.4    
        343.8       343.2       342.5       341.6       340.7       339.6       338.4       337.0       335.5       333.7    
        331.7       329.5       326.8       323.8       320.5    
  12    346.7       346.7       346.6       346.4       346.3       346.0       345.7       345.3       344.9       344.4    
        343.8       343.2       342.5       341.6       340.7       339.6       338.4       337.0       335.5       333.7    
        331.7       329.5       326.8       323.8       320.5    
  13    346.7       346.7       346.6       346.4       346.3       346.0       345.7       345.3       344.9       344.4    
        343.8       343.2       342.5       341.6       340.7       339.6       338.4       337.0       335.5       333.7    
        331.7       329.5       326.8       323.8       320.5    
  14    346.7       346.7       346.6       346.4       346.3       346.0       345.7       345.3       344.9       344.4    
        343.8       343.2       342.5       341.6       340.7       339.6       338.4       337.0       335.5       333.7    
        331.7       329.5       326.8       323.8       320.5    
  15    346.7       346.7       346.6       346.4       346.3       346.0       345.7       345.3       344.9       344.4    
        343.8       343.2       342.5       341.6       340.7       339.6       338.4       337.0       335.5       333.7    
        331.7       329.5       326.8       323.8       320.5    
  16    346.7       346.7       346.6       346.4       346.3       346.0       345.7       345.3       344.9       344.4    
        343.8       343.2       342.5       341.6       340.7       339.6       338.4       337.0       335.5       333.7    
        331.7       329.5       326.8       323.8       320.5    
  17    346.7       346.7       346.6       346.4       346.3       346.0       345.7       345.3       344.9       344.4    
        343.8       343.2       342.5       341.6       340.7       339.6       338.4       337.0       335.5       333.7    
        331.7       329.5       326.8       323.8       320.5    
  18    346.7       346.7       346.6       346.4       346.3       346.0       345.7       345.3       344.9       344.4    
        343.8       343.2       342.5       341.6       340.7       339.6       338.4       337.0       335.5       333.7    
        331.7       329.5       326.8       323.8       320.5    
  19    346.7       346.7       346.6       346.4       346.3       346.0       345.7       345.3       344.9       344.4    
        343.8       343.2       342.5       341.6       340.7       339.6       338.4       337.0       335.5       333.7    
        331.7       329.5       326.8       323.8       320.5    
  20    346.7       346.7       346.6       346.4       346.3       346.0       345.7       345.3       344.9       344.4    
        343.8       343.2       342.5       341.6       340.7       339.6       338.4       337.0       335.5       333.7    
        331.7       329.5       326.8       323.8       320.5    
  21    346.7       346.7       346.6       346.4       346.3       346.0       345.7       345.3       344.9       344.4    
        343.8       343.2       342.5       341.6       340.7       339.6       338.4       337.0       335.5       333.7    
        331.7       329.5       326.8       323.8       320.5    
  22    346.7       346.7       346.6       346.4       346.3       346.0       345.7       345.3       344.9       344.4    
        343.8       343.2       342.5       341.6       340.7       339.6       338.4       337.0       335.5       333.7    
        331.7       329.5       326.8       323.8       320.5    
  23    346.7       346.7       346.6       346.4       346.3       346.0       345.7       345.3       344.9       344.4    
        343.8       343.2       342.5       341.6       340.7       339.6       338.4       337.0       335.5       333.7    
        331.7       329.5       326.8       323.8       320.5    
  24    346.7       346.7       346.6       346.4       346.3       346.0       345.7       345.3       344.9       344.4    
        343.8       343.2       342.5       341.6       340.7       339.6       338.4       337.0       335.5       333.7    
        331.7       329.5       326.8       323.8       320.5    
  25    346.7       346.7       346.6       346.4       346.3       346.0       345.7       345.3       344.9       344.4    
        343.8       343.2       342.5       341.6       340.7       339.6       338.4       337.0       335.5       333.7    
        331.7       329.5       326.8       323.8       320.5    
1
              HEAD IN LAYER   3 AT END OF TIME STEP   1 IN STRESS PERIOD    1
  ---------------------------------------------------------------------------

            1           2           3           4           5           6           7           8           9          10
           11          12          13          14          15          16          17          18          19          20
           21          22          23          24          25
 ........................................................................................................................
   1    343.6       343.6       343.5       343.4       343.3       343.2       343.0       342.8       342.5       342.2    
        341.9       341.5       341.0       340.5       340.0       339.4       338.7       338.0       337.1       336.2    
        335.1       333.9       332.6       331.1       329.4    
   2    343.6       343.6       343.5       343.4       343.3       343.2       343.0       342.8       342.5       342.2    
        341.9       341.5       341.0       340.5       340.0       339.4       338.7       338.0       337.1       336.2    
        335.1       333.9       332.6       331.1       329.4    
   3    343.6       343.6       343.5       343.4       343.3       343.2       343.0       342.8       342.5       342.2    
        341.9       341.5       341.0       340.5       340.0       339.4       338.7       338.0       337.1       336.2    
        335.1       333.9       332.6       331.1       329.4    
   4    343.6       343.6       343.5       343.4       343.3       343.2       343.0       342.8       342.5       342.2    
        341.9       341.5       341.0       340.5       340.0       339.4       338.7       338.0       337.1       336.2    
        335.1       333.9       332.6       331.1       329.4    
   5    343.6       343.6       343.5       343.4       343.3       343.2       343.0       342.8       342.5       342.2    
        341.9       341.5       341.0       340.5       340.0       339.4       338.7       338.0       337.1       336.2    
        335.1       333.9       332.6       331.1       329.4    
   6    343.6       343.6       343.5       343.4       343.3       343.2       343.0       342.8       342.5       342.2    
        341.9       341.5       341.0       340.5       340.0       339.4       338.7       338.0       337.1       336.2    
        335.1       333.9       332.6       331.1       329.4    
   7    343.6       343.6       343.5       343.4       343.3       343.2       343.0       342.8       342.5       342.2    
        341.9       341.5       341.0       340.5       340.0       339.4       338.7       338.0       337.1       336.2    
        335.1       333.9       332.6       331.1       329.4    
   8    343.6       343.6       343.5       343.4       343.3       343.2       343.0       342.8       342.5       342.2    
        341.9       341.5       341.0       340.5       340.0       339.4       338.7       338.0       337.1       336.2    
        335.1       333.9       332.6       331.1       329.4    
   9    343.6       343.6       343.5       343.4       343.3       343.2       343.0       342.8       342.5       342.2    
        341.9       341.5       341.0       340.5       340.0       339.4       338.7       338.0       337.1       336.2    
        335.1       333.9       332.6       331.1       329.4    
  10    343.6       343.6       343.5       343.4       343.3       343.2       343.0       342.8       342.5       342.2    
        341.9       341.5       341.0       340.5       340.0       339.4       338.7       338.0       337.1       336.2    
        335.1       333.9       332.6       331.1       329.4    
  11    343.6       343.6       343.5       343.4       343.3       343.2       343.0       342.8       342.5       342.2    
        341.9       341.5       341.0       340.5       340.0       339.4       338.7       338.0       337.1       336.2    
        335.1       333.9       332.6       331.1       329.4    
  12    343.6       343.6       343.5       343.4       343.3       343.2       343.0       342.8       342.5       342.2    
        341.9       341.5       341.0       340.5       340.0       339.4       338.7       338.0       337.1       336.2    
        335.1       333.9       332.6       331.1       329.4    
  13    343.6       343.6       343.5       343.4       343.3       343.2       343.0       342.8       342.5       342.2    
        341.9       341.5       341.0       340.5       340.0       339.4       338.7       338.0       337.1       336.2    
        335.1       333.9       332.6       331.1       329.4    
  14    343.6       343.6       343.5       343.4       343.3       343.2       343.0       342.8       342.5       342.2    
        341.9       341.5       341.0       340.5       340.0       339.4       338.7       338.0       337.1       336.2    
        335.1       333.9       332.6       331.1       329.4    
  15    343.6       343.6       343.5       343.4       343.3       343.2       343.0       342.8       342.5       342.2    
        341.9       341.5       341.0       340.5       340.0       339.4       338.7       338.0       337.1       336.2    
        335.1       333.9       332.6       331.1       329.4    
  16    343.6       343.6       343.5       343.4       343.3       343.2       343.0       342.8       342.5       342.2    
        341.9       341.5       341.0       340.5       340.0       339.4       338.7       338.0       337.1       336.2    
        335.1       333.9       332.6       331.1       329.4    
  17    343.6       343.6       343.5       343.4       343.3       343.2       343.0       342.8       342.5       342.2    
        341.9       341.5       341.0       340.5       340.0       339.4       338.7       338.0       337.1       336.2    
        335.1       333.9       332.6       331.1       329.4    
  18    343.6       343.6       343.5       343.4       343.3       343.2       343.0       342.8       342.5       342.2    
        341.9       341.5       341.0       340.5       340.0       339.4       338.7       338.0       337.1       336.2    
        335.1       333.9       332.6       331.1       329.4    
  19    343.6       343.6       343.5       343.4       343.3       343.2       343.0       342.8       342.5       342.2    
        341.9       341.5       341.0       340.5       340.0       339.4       338.7       338.0       337.1       336.2    
        335.1       333.9       332.6       331.1       329.4    
  20    343.6       343.6       343.5       343.4       343.3       343.2       343.0       342.8       342.5       342.2    
        341.9       341.5       341.0       340.5       340.0       339.4       338.7       338.0       337.1       336.2    
        335.1       333.9       332.6       331.1       329.4    
  21    343.6       343.6       343.5       343.4       343.3       343.2       343.0       342.8       342.5       342.2    
        341.9       341.5       341.0       340.5       340.0       339.4       338.7       338.0       337.1       336.2    
        335.1       333.9       332.6       331.1       329.4    
  22    343.6       343.6       343.5       343.4       343.3       343.2       343.0       342.8       342.5       342.2    
        341.9       341.5       341.0       340.5       340.0       339.4       338.7       338.0       337.1       336.2    
        335.1       333.9       332.6       331.1       329.4    
  23    343.6       343.6       343.5       343.4       343.3       343.2       343.0       342.8       342.5       342.2    
        341.9       341.5       341.0       340.5       340.0       339.4       338.7       338.0       337.1       336.2    
        335.1       333.9       332.6       331.1       329.4    
  24    343.6       343.6       343.5       343.4       343.3       343.2       343.0       342.8       342.5       342.2    
        341.9       341.5       341.0       340.5       340.0       339.4       338.7       338.0       337.1       336.2    
        335.1       333.9       332.6       331.1       329.4    
  25    343.6       343.6       343.5       343.4       343.3       343.2       343.0       342.8       342.5       342.2    
        341.9       341.5       341.0       340.5       340.0       339.4       338.7       338.0       337.1       336.2    
        335.1       333.9       332.6       331.1       329.4    
1
              HEAD IN LAYER   4 AT END OF TIME STEP   1 IN STRESS PERIOD    1
  ---------------------------------------------------------------------------

            1           2           3           4           5           6           7           8           9          10
           11          12          13          14          15          16          17          18          19          20
           21          22          23          24          25
 ........................................................................................................................
   1    340.5       340.5       340.5       340.4       340.4       340.3       340.2       340.2       340.1       340.0    
        339.9       339.7       339.6       339.5       339.3       339.2       339.1       338.9       338.8       338.7    
        338.5       338.4       338.3       338.3       338.2    
   2    340.5       340.5       340.5       340.4       340.4       340.3       340.2       340.2       340.1       340.0    
        339.9       339.7       339.6       339.5       339.3       339.2       339.1       338.9       338.8       338.7    
        338.5       338.4       338.3       338.3       338.2    
   3    340.5       340.5       340.5       340.4       340.4       340.3       340.2       340.2       340.1       340.0    
        339.9       339.7       339.6       339.5       339.3       339.2       339.1       338.9       338.8       338.7    
        338.5       338.4       338.3       338.3       338.2    
   4    340.5       340.5       340.5       340.4       340.4       340.3       340.2       340.2       340.1       340.0    
        339.9       339.7       339.6       339.5       339.3       339.2       339.1       338.9       338.8       338.7    
        338.5       338.4       338.3       338.3       338.2    
   5    340.5       340.5       340.5       340.4       340.4       340.3       340.2       340.2       340.1       340.0    
        339.9       339.7       339.6       339.5       339.3       339.2       339.1       338.9       338.8       338.7    
        338.5       338.4       338.3       338.3       338.2    
   6    340.5       340.5       340.5       340.4       340.4       340.3       340.2       340.2       340.1       340.0    
        339.9       339.7       339.6       339.5       339.3       339.2       339.1       338.9       338.8       338.7    
        338.5       338.4       338.3       338.3       338.2    
   7    340.5       340.5       340.5       340.4       340.4       340.3       340.2       340.2       340.1       340.0    
        339.9       339.7       339.6       339.5       339.3       339.2       339.1       338.9       338.8       338.7    
        338.5       338.4       338.3       338.3       338.2    
   8    340.5       340.5       340.5       340.4       340.4       340.3       340.2       340.2       340.1       340.0    
        339.9       339.7       339.6       339.5       339.3       339.2       339.1       338.9       338.8       338.7    
        338.5       338.4       338.3       338.3       338.2    
   9    340.5       340.5       340.5       340.4       340.4       340.3       340.2       340.2       340.1       340.0    
        339.9       339.7       339.6       339.5       339.3       339.2       339.1       338.9       338.8       338.7    
        338.5       338.4       338.3       338.3       338.2    
  10    340.5       340.5       340.5       340.4       340.4       340.3       340.2       340.2       340.1       340.0    
        339.9       339.7       339.6       339.5       339.3       339.2       339.1       338.9       338.8       338.7    
        338.5       338.4       338.3       338.3       338.2    
  11    340.5       340.5       340.5       340.4       340.4       340.3       340.2       340.2       340.1       340.0    
        339.9       339.7       339.6       339.5       339.3       339.2       339.1       338.9       338.8       338.7    
        338.5       338.4       338.3       338.3       338.2    
  12    340.5       340.5       340.5       340.4       340.4       340.3       340.2       340.2       340.1       340.0    
        339.9       339.7       339.6       339.5       339.3       339.2       339.1       338.9       338.8       338.7    
        338.5       338.4       338.3       338.3       338.2    
  13    340.5       340.5       340.5       340.4       340.4       340.3       340.2       340.2       340.1       340.0    
        339.9       339.7       339.6       339.5       339.3       339.2       339.1       338.9       338.8       338.7    
        338.5       338.4       338.3       338.3       338.2    
  14    340.5       340.5       340.5       340.4       340.4       340.3       340.2       340.2       340.1       340.0    
        339.9       339.7       339.6       339.5       339.3       339.2       339.1       338.9       338.8       338.7    
        338.5       338.4       338.3       338.3       338.2    
  15    340.5       340.5       340.5       340.4       340.4       340.3       340.2       340.2       340.1       340.0    
        339.9       339.7       339.6       339.5       339.3       339.2       339.1       338.9       338.8       338.7    
        338.5       338.4       338.3       338.3       338.2    
  16    340.5       340.5       340.5       340.4       340.4       340.3       340.2       340.2       340.1       340.0    
        339.9       339.7       339.6       339.5       339.3       339.2       339.1       338.9       338.8       338.7    
        338.5       338.4       338.3       338.3       338.2    
  17    340.5       340.5       340.5       340.4       340.4       340.3       340.2       340.2       340.1       340.0    
        339.9       339.7       339.6       339.5       339.3       339.2       339.1       338.9       338.8       338.7    
        338.5       338.4       338.3       338.3       338.2    
  18    340.5       340.5       340.5       340.4       340.4       340.3       340.2       340.2       340.1       340.0    
        339.9       339.7       339.6       339.5       339.3       339.2       339.1       338.9       338.8       338.7    
        338.5       338.4       338.3       338.3       338.2    
  19    340.5       340.5       340.5       340.4       340.4       340.3       340.2       340.2       340.1       340.0    
        339.9       339.7       339.6       339.5       339.3       339.2       339.1       338.9       338.8       338.7    
        338.5       338.4       338.3       338.3       338.2    
  20    340.5       340.5       340.5       340.4       340.4       340.3       340.2       340.2       340.1       340.0    
        339.9       339.7       339.6       339.5       339.3       339.2       339.1       338.9       338.8       338.7    
        338.5       338.4       338.3       338.3       338.2    
  21    340.5       340.5       340.5       340.4       340.4       340.3       340.2       340.2       340.1       340.0    
        339.9       339.7       339.6       339.5       339.3       339.2       339.1       338.9       338.8       338.7    
        338.5       338.4       338.3       338.3       338.2    
  22    340.5       340.5       340.5       340.4       340.4       340.3       340.2       340.2       340.1       340.0    
        339.9       339.7       339.6       339.5       339.3       339.2       339.1       338.9       338.8       338.7    
        338.5       338.4       338.3       338.3       338.2    
  23    340.5       340.5       340.5       340.4       340.4       340.3       340.2       340.2       340.1       340.0    
        339.9       339.7       339.6       339.5       339.3       339.2       339.1       338.9       338.8       338.7    
        338.5       338.4       338.3       338.3       338.2    
  24    340.5       340.5       340.5       340.4       340.4       340.3       340.2       340.2       340.1       340.0    
        339.9       339.7       339.6       339.5       339.3       339.2       339.1       338.9       338.8       338.7    
        338.5       338.4       338.3       338.3       338.2    
  25    340.5       340.5       340.5       340.4       340.4       340.3       340.2       340.2       340.1       340.0    
        339.9       339.7       339.6       339.5       339.3       339.2       339.1       338.9       338.8       338.7    
        338.5       338.4       338.3       338.3       338.2    
1
              HEAD IN LAYER   5 AT END OF TIME STEP   1 IN STRESS PERIOD    1
  ---------------------------------------------------------------------------

            1           2           3           4           5           6           7           8           9          10
           11          12          13          14          15          16          17          18          19          20
           21          22          23          24          25
 ........................................................................................................................
   1    340.5       340.5       340.5       340.4       340.4       340.3       340.2       340.2       340.1       340.0    
        339.9       339.7       339.6       339.5       339.3       339.2       339.1       338.9       338.8       338.7    
        338.5       338.4       338.4       338.3       338.3    
   2    340.5       340.5       340.5       340.4       340.4       340.3       340.2       340.2       340.1       340.0    
        339.9       339.7       339.6       339.5       339.3       339.2       339.1       338.9       338.8       338.7    
        338.5       338.4       338.4       338.3       338.3    
   3    340.5       340.5       340.5       340.4       340.4       340.3       340.2       340.2       340.1       340.0    
        339.9       339.7       339.6       339.5       339.3       339.2       339.1       338.9       338.8       338.7    
        338.5       338.4       338.4       338.3       338.3    
   4    340.5       340.5       340.5       340.4       340.4       340.3       340.2       340.2       340.1       340.0    
        339.9       339.7       339.6       339.5       339.3       339.2       339.1       338.9       338.8       338.7    
        338.5       338.4       338.4       338.3       338.3    
   5    340.5       340.5       340.5       340.4       340.4       340.3       340.2       340.2       340.1       340.0    
        339.9       339.7       339.6       339.5       339.3       339.2       339.1       338.9       338.8       338.7    
        338.5       338.4       338.4       338.3       338.3    
   6    340.5       340.5       340.5       340.4       340.4       340.3       340.2       340.2       340.1       340.0    
        339.9       339.7       339.6       339.5       339.3       339.2       339.1       338.9       338.8       338.7    
        338.5       338.4       338.4       338.3       338.3    
   7    340.5       340.5       340.5       340.4       340.4       340.3       340.2       340.2       340.1       340.0    
        339.9       339.7       339.6       339.5       339.3       339.2       339.1       338.9       338.8       338.7    
        338.5       338.4       338.4       338.3       338.3    
   8    340.5       340.5       340.5       340.4       340.4       340.3       340.2       340.2       340.1       340.0    
        339.9       339.7       339.6       339.5       339.3       339.2       339.1       338.9       338.8       338.7    
        338.5       338.4       338.4       338.3       338.3    
   9    340.5       340.5       340.5       340.4       340.4       340.3       340.2       340.2       340.1       340.0    
        339.9       339.7       339.6       339.5       339.3       339.2       339.1       338.9       338.8       338.7    
        338.5       338.4       338.4       338.3       338.3    
  10    340.5       340.5       340.5       340.4       340.4       340.3       340.2       340.2       340.1       340.0    
        339.9       339.7       339.6       339.5       339.3       339.2       339.1       338.9       338.8       338.7    
        338.5       338.4       338.4       338.3       338.3    
  11    340.5       340.5       340.5       340.4       340.4       340.3       340.2       340.2       340.1       340.0    
        339.9       339.7       339.6       339.5       339.3       339.2       339.1       338.9       338.8       338.7    
        338.5       338.4       338.4       338.3       338.3    
  12    340.5       340.5       340.5       340.4       340.4       340.3       340.2       340.2       340.1       340.0    
        339.9       339.7       339.6       339.5       339.3       339.2       339.1       338.9       338.8       338.7    
        338.5       338.4       338.4       338.3       338.3    
  13    340.5       340.5       340.5       340.4       340.4       340.3       340.2       340.2       340.1       340.0    
        339.9       339.7       339.6       339.5       339.3       339.2       339.1       338.9       338.8       338.7    
        338.5       338.4       338.4       338.3       338.3    
  14    340.5       340.5       340.5       340.4       340.4       340.3       340.2       340.2       340.1       340.0    
        339.9       339.7       339.6       339.5       339.3       339.2       339.1       338.9       338.8       338.7    
        338.5       338.4       338.4       338.3       338.3    
  15    340.5       340.5       340.5       340.4       340.4       340.3       340.2       340.2       340.1       340.0    
        339.9       339.7       339.6       339.5       339.3       339.2       339.1       338.9       338.8       338.7    
        338.5       338.4       338.4       338.3       338.3    
  16    340.5       340.5       340.5       340.4       340.4       340.3       340.2       340.2       340.1       340.0    
        339.9       339.7       339.6       339.5       339.3       339.2       339.1       338.9       338.8       338.7    
        338.5       338.4       338.4       338.3       338.3    
  17    340.5       340.5       340.5       340.4       340.4       340.3       340.2       340.2       340.1       340.0    
        339.9       339.7       339.6       339.5       339.3       339.2       339.1       338.9       338.8       338.7    
        338.5       338.4       338.4       338.3       338.3    
  18    340.5       340.5       340.5       340.4       340.4       340.3       340.2       340.2       340.1       340.0    
        339.9       339.7       339.6       339.5       339.3       339.2       339.1       338.9       338.8       338.7    
        338.5       338.4       338.4       338.3       338.3    
  19    340.5       340.5       340.5       340.4       340.4       340.3       340.2       340.2       340.1       340.0    
        339.9       339.7       339.6       339.5       339.3       339.2       339.1       338.9       338.8       338.7    
        338.5       338.4       338.4       338.3       338.3    
  20    340.5       340.5       340.5       340.4       340.4       340.3       340.2       340.2       340.1       340.0    
        339.9       339.7       339.6       339.5       339.3       339.2       339.1       338.9       338.8       338.7    
        338.5       338.4       338.4       338.3       338.3    
  21    340.5       340.5       340.5       340.4       340.4       340.3       340.2       340.2       340.1       340.0    
        339.9       339.7       339.6       339.5       339.3       339.2       339.1       338.9       338.8       338.7    
        338.5       338.4       338.4       338.3       338.3    
  22    340.5       340.5       340.5       340.4       340.4       340.3       340.2       340.2       340.1       340.0    
        339.9       339.7       339.6       339.5       339.3       339.2       339.1       338.9       338.8       338.7    
        338.5       338.4       338.4       338.3       338.3    
  23    340.5       340.5       340.5       340.4       340.4       340.3       340.2       340.2       340.1       340.0    
        339.9       339.7       339.6       339.5       339.3       339.2       339.1       338.9       338.8       338.7    
        338.5       338.4       338.4       338.3       338.3    
  24    340.5       340.5       340.5       340.4       340.4       340.3       340.2       340.2       340.1       340.0    
        339.9       339.7       339.6       339.5       339.3       339.2       339.1       338.9       338.8       338.7    
        338.5       338.4       338.4       338.3       338.3    
  25    340.5       340.5       340.5       340.4       340.4       340.3       340.2       340.2       340.1       340.0    
        339.9       339.7       339.6       339.5       339.3       339.2       339.1       338.9       338.8       338.7    
        338.5       338.4       338.4       338.3       338.3    

 HEAD WILL BE SAVED ON UNIT   50 AT END OF TIME STEP   1, STRESS PERIOD    1
1
  VOLUMETRIC BUDGET FOR ENTIRE MODEL AT END OF TIME STEP  1 IN STRESS PERIOD   1
  ------------------------------------------------------------------------------

     CUMULATIVE VOLUMES      L**3       RATES FOR THIS TIME STEP      L**3/T
     ------------------                 ------------------------

           IN:                                      IN:
           ---                                      ---
             STORAGE =           0.0000               STORAGE =           0.0000
       CONSTANT HEAD =           0.0000         CONSTANT HEAD =           0.0000
               WELLS =           0.0000                 WELLS =           0.0000
       RIVER LEAKAGE =           0.0000         RIVER LEAKAGE =           0.0000
            RECHARGE = 99999997952.0000              RECHARGE =      500000.0000

            TOTAL IN = 99999997952.0000              TOTAL IN =      500000.0000

          OUT:                                     OUT:
          ----                                     ----
             STORAGE =           0.0000               STORAGE =           0.0000
       CONSTANT HEAD =           0.0000         CONSTANT HEAD =           0.0000
               WELLS =           0.0000                 WELLS =           0.0000
       RIVER LEAKAGE = 99999997952.0000         RIVER LEAKAGE =      500000.0000
            RECHARGE =           0.0000              RECHARGE =           0.0000

           TOTAL OUT = 99999997952.0000             TOTAL OUT =      500000.0000

            IN - OUT =           0.0000              IN - OUT =           0.0000

 PERCENT DISCREPANCY =           0.00     PERCENT DISCREPANCY =           0.00






          TIME SUMMARY AT END OF TIME STEP   1 IN STRESS PERIOD    1
                    SECONDS     MINUTES      HOURS       DAYS        YEARS
                    -----------------------------------------------------------
   TIME STEP LENGTH 1.72800E+10 2.88000E+08 4.80000E+06 2.00000E+05  547.57    
 STRESS PERIOD TIME 1.72800E+10 2.88000E+08 4.80000E+06 2.00000E+05  547.57    
         TOTAL TIME 1.72800E+10 2.88000E+08 4.80000E+06 2.00000E+05  547.57    
1
1
                            STRESS PERIOD NO.    2, LENGTH =   10000.00    
                            -----------------------------------------------

                              NUMBER OF TIME STEPS =    10

                               MULTIPLIER FOR DELT =     1.500

                            INITIAL TIME STEP SIZE =   88.23783    

 WELL NO.  LAYER   ROW   COL   STRESS RATE         IFACE           
 ------------------------------------------------------------------
      1      5     13     13     -0.1500E+06       0.000    

      1 WELL 

 REUSING NON-PARAMETER RIVER REACHES FROM LAST STRESS PERIOD

     25 RIVER REACHES

 REUSING RECH FROM LAST STRESS PERIOD
 
 SOLVING FOR HEAD 


     3 CALLS TO PCG ROUTINE FOR TIME STEP   1 IN STRESS PERIOD    2
    28 TOTAL ITERATIONS

 MAXIMUM HEAD CHANGE FOR EACH ITERATION (1 INDICATES THE FIRST INNER ITERATION):

    HEAD CHANGE    HEAD CHANGE    HEAD CHANGE    HEAD CHANGE    HEAD CHANGE 
   LAYER,ROW,COL  LAYER,ROW,COL  LAYER,ROW,COL  LAYER,ROW,COL  LAYER,ROW,COL
 ---------------------------------------------------------------------------
  1  -1.767      0  -1.716      0 -0.9293      0 -0.5006      0 -0.3272    
   (  5, 13, 13)  (  5, 13, 13)  (  5,  1, 23)  (  5, 11, 15)  (  5, 22,  5)
  0 -0.1148      0  0.9656E-01  0  0.5059E-01  0 -0.2938E-01  0 -0.1935E-01
   (  5, 21, 15)  (  3,  1, 24)  (  3, 17, 24)  (  5, 11, 16)  (  5, 16, 11)
  0 -0.2126E-01  0 -0.9023E-02  0 -0.5133E-02  0 -0.3238E-02  0 -0.2750E-02
   (  5,  1, 25)  (  3,  1,  9)  (  5, 14,  3)  (  5, 25,  1)  (  5,  1, 25)
  0  0.9804E-03  0  0.7733E-03  0 -0.4795E-03  0  0.1992E-03  0 -0.1367E-03
   (  3, 25, 20)  (  3, 24,  1)  (  5,  1, 25)  (  3, 22,  1)  (  5, 24,  3)
  1 -0.3041E-02  0  0.1491E-02  0  0.1006E-02  0  0.7040E-03  0  0.2129E-03
   (  2, 13, 24)  (  5,  2, 23)  (  3, 11, 10)  (  3, 16,  1)  (  3, 24,  1)
  0  0.2202E-03  0  0.7170E-04  1  0.6210E-04
   (  1, 25, 22)  (  1, 25, 21)  (  3, 24,  3)

 MAXIMUM RESIDUAL FOR EACH ITERATION (1 INDICATES THE FIRST INNER ITERATION):

    RESIDUAL       RESIDUAL       RESIDUAL       RESIDUAL       RESIDUAL    
   LAYER,ROW,COL  LAYER,ROW,COL  LAYER,ROW,COL  LAYER,ROW,COL  LAYER,ROW,COL
 ---------------------------------------------------------------------------
  1  0.1099E+06  0  0.4804E+05  0  0.1757E+05  0  0.1128E+05  0   6084.    
   (  5, 13, 13)  (  5, 13, 13)  (  5, 13, 13)  (  5, 14, 12)  (  4, 13, 14)
  0  -5270.      0  -4347.      0  -3243.      0  -2160.      0  -1385.    
   (  5, 13, 13)  (  5, 13, 13)  (  5, 13, 13)  (  5, 13, 13)  (  5, 13, 13)
  0  -625.0      0  -252.4      0   166.0      0   101.5      0  -55.76    
   (  5, 13, 13)  (  5, 13, 13)  (  4, 12, 15)  (  4, 15, 12)  (  4, 14, 13)
  0  -35.02      0  -15.72      0  -8.823      0   5.229      0   2.541    
   (  4, 13, 14)  (  4, 13, 14)  (  4, 14, 13)  (  4, 14, 12)  (  4, 12, 14)
  1   11.82      0   8.536      0   3.689      0  -2.545      0  -1.937    
   (  1, 13, 25)  (  1, 13, 25)  (  1,  1, 25)  (  2,  1, 24)  (  2,  1, 24)
  0 -0.6307      0 -0.4686      1 -0.4389    
   (  1, 25, 19)  (  1,  2, 22)  (  1,  2, 22)



 OUTPUT CONTROL FOR STRESS PERIOD    2   TIME STEP   1
    SAVE BUDGET
    PRINT HEAD FOR ALL LAYERS
    SAVE HEAD FOR ALL LAYERS
 UBDSV1 SAVING "         STORAGE" ON UNIT  53 AT TIME STEP  1, STRESS PERIOD   2
 UBDSV2 SAVING "   CONSTANT HEAD" ON UNIT  53 AT TIME STEP  1, STRESS PERIOD   2
 UBDSV1 SAVING "FLOW RIGHT FACE " ON UNIT  53 AT TIME STEP  1, STRESS PERIOD   2
 UBDSV1 SAVING "FLOW FRONT FACE " ON UNIT  53 AT TIME STEP  1, STRESS PERIOD   2
 UBDSV1 SAVING "FLOW LOWER FACE " ON UNIT  53 AT TIME STEP  1, STRESS PERIOD   2
 UBDSV4 SAVING "           WELLS" ON UNIT  53 AT TIME STEP  1, STRESS PERIOD   2
 UBDSV4 SAVING "   RIVER LEAKAGE" ON UNIT  53 AT TIME STEP  1, STRESS PERIOD   2
 UBDSV3 SAVING "        RECHARGE" ON UNIT  53 AT TIME STEP  1, STRESS PERIOD   2
1
              HEAD IN LAYER   1 AT END OF TIME STEP   1 IN STRESS PERIOD    2
  ---------------------------------------------------------------------------

            1           2           3           4           5           6           7           8           9          10
           11          12          13          14          15          16          17          18          19          20
           21          22          23          24          25
 ........................................................................................................................
   1    346.4       346.3       346.2       346.1       345.9       345.6       345.3       345.0       344.6       344.1    
        343.5       342.8       342.1       341.3       340.3       339.3       338.1       336.7       335.2       333.4    
        331.5       329.2       326.7       323.7       320.2    
   2    346.4       346.3       346.2       346.1       345.9       345.6       345.3       345.0       344.5       344.1    
        343.5       342.8       342.1       341.3       340.3       339.3       338.1       336.7       335.2       333.4    
        331.5       329.2       326.7       323.7       320.2    
   3    346.4       346.3       346.2       346.1       345.9       345.6       345.3       345.0       344.5       344.1    
        343.5       342.8       342.1       341.3       340.3       339.3       338.1       336.7       335.2       333.4    
        331.5       329.2       326.7       323.7       320.2    
   4    346.4       346.3       346.2       346.1       345.9       345.6       345.3       345.0       344.5       344.0    
        343.5       342.8       342.1       341.3       340.3       339.3       338.1       336.7       335.2       333.4    
        331.5       329.2       326.7       323.7       320.2    
   5    346.4       346.3       346.2       346.1       345.9       345.6       345.3       345.0       344.5       344.0    
        343.5       342.8       342.1       341.3       340.3       339.3       338.1       336.7       335.2       333.4    
        331.5       329.2       326.7       323.7       320.2    
   6    346.4       346.3       346.2       346.1       345.9       345.6       345.3       345.0       344.5       344.0    
        343.5       342.8       342.1       341.3       340.3       339.3       338.1       336.7       335.2       333.4    
        331.5       329.2       326.7       323.7       320.2    
   7    346.4       346.3       346.2       346.1       345.9       345.6       345.3       345.0       344.5       344.0    
        343.5       342.8       342.1       341.2       340.3       339.2       338.0       336.7       335.2       333.4    
        331.5       329.2       326.7       323.7       320.2    
   8    346.4       346.3       346.2       346.1       345.9       345.6       345.3       345.0       344.5       344.0    
        343.5       342.8       342.1       341.2       340.3       339.2       338.0       336.7       335.2       333.4    
        331.5       329.2       326.7       323.7       320.2    
   9    346.4       346.3       346.2       346.1       345.9       345.6       345.3       345.0       344.5       344.0    
        343.5       342.8       342.1       341.2       340.3       339.2       338.0       336.7       335.2       333.4    
        331.5       329.2       326.7       323.7       320.2    
  10    346.4       346.3       346.2       346.1       345.9       345.6       345.3       344.9       344.5       344.0    
        343.4       342.8       342.1       341.2       340.3       339.2       338.0       336.7       335.2       333.4    
        331.5       329.2       326.7       323.7       320.2    
  11    346.4       346.3       346.2       346.1       345.9       345.6       345.3       344.9       344.5       344.0    
        343.4       342.8       342.0       341.2       340.3       339.2       338.0       336.7       335.1       333.4    
        331.5       329.2       326.7       323.7       320.2    
  12    346.4       346.3       346.2       346.1       345.9       345.6       345.3       344.9       344.5       344.0    
        343.4       342.8       342.0       341.2       340.3       339.2       338.0       336.7       335.1       333.4    
        331.5       329.2       326.7       323.7       320.2    
  13    346.4       346.3       346.2       346.1       345.9       345.6       345.3       344.9       344.5       344.0    
        343.4       342.8       342.0       341.2       340.3       339.2       338.0       336.7       335.1       333.4    
        331.5       329.2       326.7       323.7       320.2    
  14    346.4       346.3       346.2       346.1       345.9       345.6       345.3       344.9       344.5       344.0    
        343.4       342.8       342.0       341.2       340.3       339.2       338.0       336.7       335.1       333.4    
        331.5       329.2       326.7       323.7       320.2    
  15    346.4       346.3       346.2       346.1       345.9       345.6       345.3       344.9       344.5       344.0    
        343.4       342.8       342.0       341.2       340.3       339.2       338.0       336.7       335.1       333.4    
        331.5       329.2       326.7       323.7       320.2    
  16    346.4       346.3       346.2       346.1       345.9       345.6       345.3       344.9       344.5       344.0    
        343.4       342.8       342.1       341.2       340.3       339.2       338.0       336.7       335.2       333.4    
        331.5       329.2       326.7       323.7       320.2    
  17    346.4       346.3       346.2       346.1       345.9       345.6       345.3       345.0       344.5       344.0    
        343.5       342.8       342.1       341.2       340.3       339.2       338.0       336.7       335.2       333.4    
        331.5       329.2       326.7       323.7       320.2    
  18    346.4       346.3       346.2       346.1       345.9       345.6       345.3       345.0       344.5       344.0    
        343.5       342.8       342.1       341.2       340.3       339.2       338.0       336.7       335.2       333.4    
        331.5       329.2       326.7       323.7       320.2    
  19    346.4       346.3       346.2       346.1       345.9       345.6       345.3       345.0       344.5       344.0    
        343.5       342.8       342.1       341.2       340.3       339.2       338.0       336.7       335.2       333.4    
        331.5       329.2       326.7       323.7       320.2    
  20    346.4       346.3       346.2       346.1       345.9       345.6       345.3       345.0       344.5       344.0    
        343.5       342.8       342.1       341.3       340.3       339.3       338.1       336.7       335.2       333.4    
        331.5       329.2       326.7       323.7       320.2    
  21    346.4       346.3       346.2       346.1       345.9       345.6       345.3       345.0       344.5       344.0    
        343.5       342.8       342.1       341.3       340.3       339.3       338.1       336.7       335.2       333.4    
        331.5       329.2       326.7       323.7       320.2    
  22    346.4       346.3       346.2       346.1       345.9       345.6       345.3       345.0       344.5       344.0    
        343.5       342.8       342.1       341.3       340.3       339.3       338.1       336.7       335.2       333.4    
        331.5       329.2       326.7       323.7       320.2    
  23    346.4       346.3       346.2       346.1       345.9       345.6       345.3       345.0       344.5       344.1    
        343.5       342.8       342.1       341.3       340.3       339.3       338.1       336.7       335.2       333.4    
        331.5       329.2       326.7       323.7       320.2    
  24    346.4       346.3       346.2       346.1       345.9       345.6       345.3       345.0       344.5       344.1    
        343.5       342.8       342.1       341.3       340.3       339.3       338.1       336.7       335.2       333.4    
        331.5       329.2       326.7       323.7       320.2    
  25    346.4       346.3       346.2       346.1       345.9       345.6       345.3       345.0       344.6       344.1    
        343.5       342.8       342.1       341.3       340.3       339.3       338.1       336.7       335.2       333.4    
        331.5       329.2       326.7       323.7       320.2    
1
              HEAD IN LAYER   2 AT END OF TIME STEP   1 IN STRESS PERIOD    2
  ---------------------------------------------------------------------------

            1           2           3           4           5           6           7           8           9          10
           11          12          13          14          15          16          17          18          19          20
           21          22          23          24          25
 ........................................................................................................................
   1    346.4       346.3       346.2       346.1       345.9       345.6       345.3       345.0       344.5       344.0    
        343.5       342.8       342.1       341.2       340.3       339.2       338.0       336.7       335.2       333.4    
        331.5       329.2       326.7       323.7       320.5    
   2    346.4       346.3       346.2       346.1       345.9       345.6       345.3       344.9       344.5       344.0    
        343.5       342.8       342.1       341.2       340.3       339.2       338.0       336.7       335.2       333.4    
        331.5       329.2       326.7       323.7       320.5    
   3    346.4       346.3       346.2       346.1       345.9       345.6       345.3       344.9       344.5       344.0    
        343.5       342.8       342.1       341.2       340.3       339.2       338.0       336.7       335.2       333.4    
        331.5       329.2       326.7       323.7       320.5    
   4    346.4       346.3       346.2       346.1       345.9       345.6       345.3       344.9       344.5       344.0    
        343.5       342.8       342.1       341.2       340.3       339.2       338.0       336.7       335.2       333.4    
        331.5       329.2       326.7       323.7       320.5    
   5    346.4       346.3       346.2       346.1       345.9       345.6       345.3       344.9       344.5       344.0    
        343.5       342.8       342.1       341.2       340.3       339.2       338.0       336.7       335.2       333.4    
        331.5       329.2       326.7       323.7       320.5    
   6    346.4       346.3       346.2       346.1       345.9       345.6       345.3       344.9       344.5       344.0    
        343.4       342.8       342.1       341.2       340.3       339.2       338.0       336.7       335.2       333.4    
        331.5       329.2       326.7       323.7       320.5    
   7    346.4       346.3       346.2       346.1       345.9       345.6       345.3       344.9       344.5       344.0    
        343.4       342.8       342.1       341.2       340.3       339.2       338.0       336.7       335.1       333.4    
        331.5       329.2       326.7       323.7       320.5    
   8    346.3       346.3       346.2       346.1       345.9       345.6       345.3       344.9       344.5       344.0    
        343.4       342.8       342.0       341.2       340.3       339.2       338.0       336.7       335.1       333.4    
        331.5       329.2       326.7       323.7       320.5    
   9    346.3       346.3       346.2       346.1       345.9       345.6       345.3       344.9       344.5       344.0    
        343.4       342.8       342.0       341.2       340.3       339.2       338.0       336.7       335.1       333.4    
        331.4       329.2       326.7       323.7       320.5    
  10    346.3       346.3       346.2       346.1       345.9       345.6       345.3       344.9       344.5       344.0    
        343.4       342.8       342.0       341.2       340.3       339.2       338.0       336.7       335.1       333.4    
        331.4       329.2       326.7       323.7       320.5    
  11    346.3       346.3       346.2       346.0       345.8       345.6       345.3       344.9       344.5       344.0    
        343.4       342.8       342.0       341.2       340.3       339.2       338.0       336.7       335.1       333.4    
        331.4       329.2       326.7       323.7       320.5    
  12    346.3       346.3       346.2       346.0       345.8       345.6       345.3       344.9       344.5       344.0    
        343.4       342.8       342.0       341.2       340.3       339.2       338.0       336.7       335.1       333.4    
        331.4       329.2       326.7       323.7       320.5    
  13    346.3       346.3       346.2       346.0       345.8       345.6       345.3       344.9       344.5       344.0    
        343.4       342.7       342.0       341.2       340.2       339.2       338.0       336.7       335.1       333.4    
        331.4       329.2       326.7       323.7       320.5    
  14    346.3       346.3       346.2       346.0       345.8       345.6       345.3       344.9       344.5       344.0    
        343.4       342.8       342.0       341.2       340.3       339.2       338.0       336.7       335.1       333.4    
        331.4       329.2       326.7       323.7       320.5    
  15    346.3       346.3       346.2       346.0       345.8       345.6       345.3       344.9       344.5       344.0    
        343.4       342.8       342.0       341.2       340.3       339.2       338.0       336.7       335.1       333.4    
        331.4       329.2       326.7       323.7       320.5    
  16    346.3       346.3       346.2       346.1       345.9       345.6       345.3       344.9       344.5       344.0    
        343.4       342.8       342.0       341.2       340.3       339.2       338.0       336.7       335.1       333.4    
        331.4       329.2       326.7       323.7       320.5    
  17    346.3       346.3       346.2       346.1       345.9       345.6       345.3       344.9       344.5       344.0    
        343.4       342.8       342.0       341.2       340.3       339.2       338.0       336.7       335.1       333.4    
        331.4       329.2       326.7       323.7       320.5    
  18    346.3       346.3       346.2       346.1       345.9       345.6       345.3       344.9       344.5       344.0    
        343.4       342.8       342.0       341.2       340.3       339.2       338.0       336.7       335.1       333.4    
        331.5       329.2       326.7       323.7       320.5    
  19    346.4       346.3       346.2       346.1       345.9       345.6       345.3       344.9       344.5       344.0    
        343.4       342.8       342.1       341.2       340.3       339.2       338.0       336.7       335.1       333.4    
        331.5       329.2       326.7       323.7       320.5    
  20    346.4       346.3       346.2       346.1       345.9       345.6       345.3       344.9       344.5       344.0    
        343.4       342.8       342.1       341.2       340.3       339.2       338.0       336.7       335.2       333.4    
        331.5       329.2       326.7       323.7       320.5    
  21    346.4       346.3       346.2       346.1       345.9       345.6       345.3       344.9       344.5       344.0    
        343.5       342.8       342.1       341.2       340.3       339.2       338.0       336.7       335.2       333.4    
        331.5       329.2       326.7       323.7       320.5    
  22    346.4       346.3       346.2       346.1       345.9       345.6       345.3       344.9       344.5       344.0    
        343.5       342.8       342.1       341.2       340.3       339.2       338.0       336.7       335.2       333.4    
        331.5       329.2       326.7       323.7       320.5    
  23    346.4       346.3       346.2       346.1       345.9       345.6       345.3       344.9       344.5       344.0    
        343.5       342.8       342.1       341.2       340.3       339.2       338.0       336.7       335.2       333.4    
        331.5       329.2       326.7       323.7       320.5    
  24    346.4       346.3       346.2       346.1       345.9       345.6       345.3       344.9       344.5       344.0    
        343.5       342.8       342.1       341.2       340.3       339.2       338.0       336.7       335.2       333.4    
        331.5       329.2       326.7       323.7       320.5    
  25    346.4       346.3       346.2       346.1       345.9       345.6       345.3       345.0       344.5       344.0    
        343.5       342.8       342.1       341.2       340.3       339.2       338.0       336.7       335.2       333.4    
        331.5       329.2       326.7       323.7       320.5    
1
              HEAD IN LAYER   3 AT END OF TIME STEP   1 IN STRESS PERIOD    2
  ---------------------------------------------------------------------------

            1           2           3           4           5           6           7           8           9          10
           11          12          13          14          15          16          17          18          19          20
           21          22          23          24          25
 ........................................................................................................................
   1    342.4       342.4       342.3       342.2       342.1       341.9       341.7       341.5       341.2       340.9    
        340.6       340.2       339.8       339.3       338.7       338.2       337.5       336.7       335.9       335.0    
        334.0       332.8       331.5       330.0       328.3    
   2    342.4       342.4       342.3       342.2       342.1       341.9       341.7       341.5       341.2       340.9    
        340.6       340.2       339.8       339.3       338.7       338.1       337.5       336.7       335.9       335.0    
        334.0       332.8       331.5       330.0       328.3    
   3    342.4       342.4       342.3       342.2       342.1       341.9       341.7       341.5       341.2       340.9    
        340.6       340.2       339.8       339.3       338.7       338.1       337.5       336.7       335.9       335.0    
        334.0       332.8       331.5       330.0       328.3    
   4    342.4       342.4       342.3       342.2       342.1       341.9       341.7       341.5       341.2       340.9    
        340.6       340.2       339.7       339.3       338.7       338.1       337.5       336.7       335.9       335.0    
        333.9       332.8       331.5       330.0       328.3    
   5    342.4       342.3       342.3       342.2       342.1       341.9       341.7       341.5       341.2       340.9    
        340.5       340.1       339.7       339.2       338.7       338.1       337.4       336.7       335.9       335.0    
        333.9       332.8       331.5       330.0       328.3    
   6    342.4       342.3       342.3       342.2       342.0       341.9       341.7       341.4       341.2       340.9    
        340.5       340.1       339.7       339.2       338.7       338.1       337.4       336.7       335.9       335.0    
        333.9       332.8       331.4       330.0       328.3    
   7    342.4       342.3       342.3       342.2       342.0       341.9       341.7       341.4       341.1       340.8    
        340.5       340.1       339.6       339.2       338.6       338.1       337.4       336.7       335.9       334.9    
        333.9       332.8       331.4       329.9       328.3    
   8    342.4       342.3       342.3       342.2       342.0       341.9       341.6       341.4       341.1       340.8    
        340.4       340.0       339.6       339.1       338.6       338.0       337.4       336.7       335.8       334.9    
        333.9       332.7       331.4       329.9       328.3    
   9    342.4       342.3       342.3       342.2       342.0       341.8       341.6       341.4       341.1       340.8    
        340.4       340.0       339.5       339.1       338.5       338.0       337.3       336.6       335.8       334.9    
        333.9       332.7       331.4       329.9       328.3    
  10    342.4       342.3       342.2       342.1       342.0       341.8       341.6       341.4       341.1       340.7    
        340.3       339.9       339.5       339.0       338.5       337.9       337.3       336.6       335.8       334.9    
        333.9       332.7       331.4       329.9       328.3    
  11    342.3       342.3       342.2       342.1       342.0       341.8       341.6       341.3       341.0       340.7    
        340.3       339.8       339.3       338.9       338.4       337.9       337.3       336.6       335.8       334.9    
        333.9       332.7       331.4       329.9       328.3    
  12    342.3       342.3       342.2       342.1       342.0       341.8       341.6       341.3       341.0       340.6    
        340.2       339.7       339.2       338.8       338.4       337.9       337.3       336.6       335.8       334.9    
        333.9       332.7       331.4       329.9       328.3    
  13    342.3       342.3       342.2       342.1       342.0       341.8       341.6       341.3       341.0       340.6    
        340.1       339.6       338.9       338.7       338.3       337.8       337.2       336.6       335.8       334.9    
        333.9       332.7       331.4       329.9       328.3    
  14    342.3       342.3       342.2       342.1       342.0       341.8       341.6       341.3       341.0       340.6    
        340.2       339.7       339.2       338.8       338.4       337.9       337.3       336.6       335.8       334.9    
        333.9       332.7       331.4       329.9       328.3    
  15    342.3       342.3       342.2       342.1       342.0       341.8       341.6       341.3       341.0       340.7    
        340.3       339.8       339.3       338.9       338.4       337.9       337.3       336.6       335.8       334.9    
        333.9       332.7       331.4       329.9       328.3    
  16    342.4       342.3       342.2       342.1       342.0       341.8       341.6       341.4       341.1       340.7    
        340.3       339.9       339.5       339.0       338.5       337.9       337.3       336.6       335.8       334.9    
        333.9       332.7       331.4       329.9       328.3    
  17    342.4       342.3       342.3       342.2       342.0       341.8       341.6       341.4       341.1       340.8    
        340.4       340.0       339.5       339.1       338.5       338.0       337.3       336.6       335.8       334.9    
        333.9       332.7       331.4       329.9       328.3    
  18    342.4       342.3       342.3       342.2       342.0       341.9       341.6       341.4       341.1       340.8    
        340.4       340.0       339.6       339.1       338.6       338.0       337.4       336.7       335.8       334.9    
        333.9       332.7       331.4       329.9       328.3    
  19    342.4       342.3       342.3       342.2       342.0       341.9       341.7       341.4       341.1       340.8    
        340.5       340.1       339.6       339.2       338.6       338.1       337.4       336.7       335.9       334.9    
        333.9       332.8       331.4       329.9       328.3    
  20    342.4       342.3       342.3       342.2       342.0       341.9       341.7       341.4       341.2       340.9    
        340.5       340.1       339.7       339.2       338.7       338.1       337.4       336.7       335.9       335.0    
        333.9       332.8       331.4       330.0       328.3    
  21    342.4       342.3       342.3       342.2       342.1       341.9       341.7       341.5       341.2       340.9    
        340.5       340.1       339.7       339.2       338.7       338.1       337.4       336.7       335.9       335.0    
        333.9       332.8       331.5       330.0       328.3    
  22    342.4       342.4       342.3       342.2       342.1       341.9       341.7       341.5       341.2       340.9    
        340.6       340.2       339.7       339.3       338.7       338.1       337.5       336.7       335.9       335.0    
        333.9       332.8       331.5       330.0       328.3    
  23    342.4       342.4       342.3       342.2       342.1       341.9       341.7       341.5       341.2       340.9    
        340.6       340.2       339.8       339.3       338.7       338.1       337.5       336.7       335.9       335.0    
        334.0       332.8       331.5       330.0       328.3    
  24    342.4       342.4       342.3       342.2       342.1       341.9       341.7       341.5       341.2       340.9    
        340.6       340.2       339.8       339.3       338.7       338.1       337.5       336.7       335.9       335.0    
        334.0       332.8       331.5       330.0       328.3    
  25    342.4       342.4       342.3       342.2       342.1       341.9       341.7       341.5       341.2       340.9    
        340.6       340.2       339.8       339.3       338.7       338.2       337.5       336.7       335.9       335.0    
        334.0       332.8       331.5       330.0       328.3    
1
              HEAD IN LAYER   4 AT END OF TIME STEP   1 IN STRESS PERIOD    2
  ---------------------------------------------------------------------------

            1           2           3           4           5           6           7           8           9          10
           11          12          13          14          15          16          17          18          19          20
           21          22          23          24          25
 ........................................................................................................................
   1    338.4       338.4       338.4       338.3       338.3       338.2       338.1       338.0       337.9       337.8    
        337.7       337.6       337.4       337.3       337.2       337.0       336.9       336.8       336.7       336.5    
        336.4       336.3       336.3       336.2       336.2    
   2    338.4       338.4       338.4       338.3       338.3       338.2       338.1       338.0       337.9       337.8    
        337.7       337.5       337.4       337.3       337.2       337.0       336.9       336.8       336.6       336.5    
        336.4       336.3       336.3       336.2       336.2    
   3    338.4       338.4       338.4       338.3       338.2       338.2       338.1       338.0       337.9       337.8    
        337.6       337.5       337.4       337.3       337.1       337.0       336.9       336.8       336.6       336.5    
        336.4       336.3       336.2       336.2       336.2    
   4    338.4       338.4       338.3       338.3       338.2       338.2       338.1       338.0       337.9       337.7    
        337.6       337.5       337.4       337.2       337.1       337.0       336.9       336.7       336.6       336.5    
        336.4       336.3       336.2       336.2       336.1    
   5    338.4       338.4       338.3       338.3       338.2       338.1       338.1       337.9       337.8       337.7    
        337.6       337.5       337.3       337.2       337.1       337.0       336.8       336.7       336.6       336.5    
        336.4       336.3       336.2       336.2       336.1    
   6    338.4       338.4       338.3       338.3       338.2       338.1       338.0       337.9       337.8       337.7    
        337.5       337.4       337.3       337.1       337.0       336.9       336.8       336.7       336.6       336.5    
        336.4       336.3       336.2       336.2       336.1    
   7    338.4       338.3       338.3       338.3       338.2       338.1       338.0       337.9       337.8       337.6    
        337.5       337.3       337.2       337.1       337.0       336.9       336.7       336.6       336.5       336.4    
        336.4       336.3       336.2       336.1       336.1    
   8    338.3       338.3       338.3       338.2       338.2       338.1       338.0       337.8       337.7       337.6    
        337.4       337.3       337.1       337.0       336.9       336.8       336.7       336.6       336.5       336.4    
        336.3       336.3       336.2       336.1       336.1    
   9    338.3       338.3       338.3       338.2       338.1       338.0       337.9       337.8       337.6       337.5    
        337.3       337.1       337.0       336.9       336.8       336.7       336.6       336.6       336.5       336.4    
        336.3       336.2       336.2       336.1       336.1    
  10    338.3       338.3       338.3       338.2       338.1       338.0       337.9       337.7       337.6       337.4    
        337.2       337.0       336.8       336.7       336.7       336.6       336.6       336.5       336.4       336.4    
        336.3       336.2       336.2       336.1       336.1    
  11    338.3       338.3       338.3       338.2       338.1       338.0       337.9       337.7       337.5       337.3    
        337.1       336.8       336.6       336.6       336.6       336.5       336.5       336.5       336.4       336.3    
        336.3       336.2       336.1       336.1       336.1    
  12    338.3       338.3       338.2       338.2       338.1       338.0       337.8       337.7       337.5       337.2    
        336.9       336.6       336.3       336.3       336.4       336.5       336.5       336.4       336.4       336.3    
        336.3       336.2       336.1       336.1       336.1    
  13    338.3       338.3       338.2       338.2       338.1       338.0       337.8       337.7       337.5       337.2    
        336.9       336.4       335.8       336.1       336.3       336.4       336.5       336.4       336.4       336.3    
        336.3       336.2       336.1       336.1       336.1    
  14    338.3       338.3       338.2       338.2       338.1       338.0       337.8       337.7       337.5       337.2    
        336.9       336.6       336.3       336.3       336.4       336.5       336.5       336.4       336.4       336.3    
        336.3       336.2       336.1       336.1       336.1    
  15    338.3       338.3       338.3       338.2       338.1       338.0       337.9       337.7       337.5       337.3    
        337.1       336.8       336.6       336.6       336.6       336.5       336.5       336.5       336.4       336.3    
        336.3       336.2       336.1       336.1       336.1    
  16    338.3       338.3       338.3       338.2       338.1       338.0       337.9       337.7       337.6       337.4    
        337.2       337.0       336.8       336.7       336.7       336.6       336.6       336.5       336.4       336.4    
        336.3       336.2       336.2       336.1       336.1    
  17    338.3       338.3       338.3       338.2       338.1       338.0       337.9       337.8       337.6       337.5    
        337.3       337.1       337.0       336.9       336.8       336.7       336.6       336.6       336.5       336.4    
        336.3       336.2       336.2       336.1       336.1    
  18    338.3       338.3       338.3       338.2       338.2       338.1       338.0       337.8       337.7       337.6    
        337.4       337.3       337.1       337.0       336.9       336.8       336.7       336.6       336.5       336.4    
        336.3       336.3       336.2       336.1       336.1    
  19    338.4       338.3       338.3       338.3       338.2       338.1       338.0       337.9       337.8       337.6    
        337.5       337.3       337.2       337.1       337.0       336.9       336.7       336.6       336.5       336.4    
        336.4       336.3       336.2       336.1       336.1    
  20    338.4       338.4       338.3       338.3       338.2       338.1       338.0       337.9       337.8       337.7    
        337.5       337.4       337.3       337.1       337.0       336.9       336.8       336.7       336.6       336.5    
        336.4       336.3       336.2       336.2       336.1    
  21    338.4       338.4       338.3       338.3       338.2       338.1       338.1       337.9       337.8       337.7    
        337.6       337.5       337.3       337.2       337.1       337.0       336.8       336.7       336.6       336.5    
        336.4       336.3       336.2       336.2       336.1    
  22    338.4       338.4       338.3       338.3       338.2       338.2       338.1       338.0       337.9       337.7    
        337.6       337.5       337.4       337.2       337.1       337.0       336.9       336.7       336.6       336.5    
        336.4       336.3       336.2       336.2       336.1    
  23    338.4       338.4       338.4       338.3       338.2       338.2       338.1       338.0       337.9       337.8    
        337.6       337.5       337.4       337.3       337.1       337.0       336.9       336.8       336.6       336.5    
        336.4       336.3       336.2       336.2       336.2    
  24    338.4       338.4       338.4       338.3       338.3       338.2       338.1       338.0       337.9       337.8    
        337.7       337.5       337.4       337.3       337.2       337.0       336.9       336.8       336.6       336.5    
        336.4       336.3       336.3       336.2       336.2    
  25    338.4       338.4       338.4       338.3       338.3       338.2       338.1       338.0       337.9       337.8    
        337.7       337.6       337.4       337.3       337.2       337.0       336.9       336.8       336.7       336.5    
        336.4       336.3       336.3       336.2       336.2    
1
              HEAD IN LAYER   5 AT END OF TIME STEP   1 IN STRESS PERIOD    2
  ---------------------------------------------------------------------------

            1           2           3           4           5           6           7           8           9          10
           11          12          13          14          15          16          17          18          19          20
           21          22          23          24          25
 ........................................................................................................................
   1    338.4       338.4       338.4       338.3       338.3       338.2       338.1       338.0       337.9       337.8    
        337.7       337.5       337.4       337.3       337.2       337.0       336.9       336.8       336.7       336.5    
        336.4       336.3       336.3       336.2       336.2    
   2    338.4       338.4       338.3       338.3       338.2       338.2       338.1       338.0       337.9       337.8    
        337.7       337.5       337.4       337.3       337.1       337.0       336.9       336.8       336.6       336.5    
        336.4       336.3       336.3       336.2       336.2    
   3    338.4       338.4       338.3       338.3       338.2       338.2       338.1       338.0       337.9       337.8    
        337.6       337.5       337.4       337.3       337.1       337.0       336.9       336.8       336.6       336.5    
        336.4       336.3       336.3       336.2       336.2    
   4    338.4       338.4       338.3       338.3       338.2       338.2       338.1       338.0       337.9       337.7    
        337.6       337.5       337.4       337.2       337.1       337.0       336.9       336.7       336.6       336.5    
        336.4       336.3       336.2       336.2       336.2    
   5    338.4       338.4       338.3       338.3       338.2       338.1       338.0       337.9       337.8       337.7    
        337.6       337.5       337.3       337.2       337.1       336.9       336.8       336.7       336.6       336.5    
        336.4       336.3       336.2       336.2       336.2    
   6    338.4       338.3       338.3       338.3       338.2       338.1       338.0       337.9       337.8       337.7    
        337.5       337.4       337.3       337.1       337.0       336.9       336.8       336.7       336.6       336.5    
        336.4       336.3       336.2       336.2       336.1    
   7    338.3       338.3       338.3       338.2       338.2       338.1       338.0       337.9       337.7       337.6    
        337.5       337.3       337.2       337.1       337.0       336.9       336.7       336.6       336.5       336.4    
        336.4       336.3       336.2       336.2       336.1    
   8    338.3       338.3       338.3       338.2       338.2       338.1       338.0       337.8       337.7       337.5    
        337.4       337.2       337.1       337.0       336.9       336.8       336.7       336.6       336.5       336.4    
        336.3       336.3       336.2       336.1       336.1    
   9    338.3       338.3       338.3       338.2       338.1       338.0       337.9       337.8       337.6       337.5    
        337.3       337.1       337.0       336.9       336.8       336.7       336.6       336.6       336.5       336.4    
        336.3       336.2       336.2       336.1       336.1    
  10    338.3       338.3       338.3       338.2       338.1       338.0       337.9       337.7       337.6       337.4    
        337.2       337.0       336.8       336.7       336.7       336.6       336.6       336.5       336.4       336.4    
        336.3       336.2       336.2       336.1       336.1    
  11    338.3       338.3       338.2       338.2       338.1       338.0       337.9       337.7       337.5       337.3    
        337.1       336.8       336.6       336.5       336.5       336.5       336.5       336.5       336.4       336.4    
        336.3       336.2       336.2       336.1       336.1    
  12    338.3       338.3       338.2       338.2       338.1       338.0       337.8       337.7       337.5       337.2    
        336.9       336.5       336.1       336.3       336.4       336.5       336.5       336.4       336.4       336.3    
        336.3       336.2       336.2       336.1       336.1    
  13    338.3       338.3       338.2       338.2       338.1       338.0       337.8       337.7       337.4       337.2    
        336.8       336.2       334.7       336.0       336.3       336.4       336.5       336.4       336.4       336.3    
        336.3       336.2       336.2       336.1       336.1    
  14    338.3       338.3       338.2       338.2       338.1       338.0       337.8       337.7       337.5       337.2    
        336.9       336.5       336.1       336.3       336.4       336.5       336.5       336.4       336.4       336.3    
        336.3       336.2       336.2       336.1       336.1    
  15    338.3       338.3       338.2       338.2       338.1       338.0       337.9       337.7       337.5       337.3    
        337.1       336.8       336.6       336.5       336.5       336.5       336.5       336.5       336.4       336.4    
        336.3       336.2       336.2       336.1       336.1    
  16    338.3       338.3       338.3       338.2       338.1       338.0       337.9       337.7       337.6       337.4    
        337.2       337.0       336.8       336.7       336.7       336.6       336.6       336.5       336.4       336.4    
        336.3       336.2       336.2       336.1       336.1    
  17    338.3       338.3       338.3       338.2       338.1       338.0       337.9       337.8       337.6       337.5    
        337.3       337.1       337.0       336.9       336.8       336.7       336.6       336.6       336.5       336.4    
        336.3       336.2       336.2       336.1       336.1    
  18    338.3       338.3       338.3       338.2       338.2       338.1       338.0       337.8       337.7       337.5    
        337.4       337.2       337.1       337.0       336.9       336.8       336.7       336.6       336.5       336.4    
        336.3       336.3       336.2       336.1       336.1    
  19    338.3       338.3       338.3       338.2       338.2       338.1       338.0       337.9       337.7       337.6    
        337.5       337.3       337.2       337.1       337.0       336.9       336.7       336.6       336.5       336.4    
        336.4       336.3       336.2       336.2       336.1    
  20    338.4       338.3       338.3       338.3       338.2       338.1       338.0       337.9       337.8       337.7    
        337.5       337.4       337.3       337.1       337.0       336.9       336.8       336.7       336.6       336.5    
        336.4       336.3       336.2       336.2       336.1    
  21    338.4       338.4       338.3       338.3       338.2       338.1       338.0       337.9       337.8       337.7    
        337.6       337.5       337.3       337.2       337.1       336.9       336.8       336.7       336.6       336.5    
        336.4       336.3       336.2       336.2       336.2    
  22    338.4       338.4       338.3       338.3       338.2       338.2       338.1       338.0       337.9       337.7    
        337.6       337.5       337.4       337.2       337.1       337.0       336.9       336.7       336.6       336.5    
        336.4       336.3       336.2       336.2       336.2    
  23    338.4       338.4       338.3       338.3       338.2       338.2       338.1       338.0       337.9       337.8    
        337.6       337.5       337.4       337.3       337.1       337.0       336.9       336.8       336.6       336.5    
        336.4       336.3       336.3       336.2       336.2    
  24    338.4       338.4       338.3       338.3       338.2       338.2       338.1       338.0       337.9       337.8    
        337.7       337.5       337.4       337.3       337.2       337.0       336.9       336.8       336.6       336.5    
        336.4       336.3       336.3       336.2       336.2    
  25    338.4       338.4       338.4       338.3       338.3       338.2       338.1       338.0       337.9       337.8    
        337.7       337.5       337.4       337.3       337.2       337.0       336.9       336.8       336.7       336.5    
        336.4       336.3       336.3       336.2       336.2    

 HEAD WILL BE SAVED ON UNIT   50 AT END OF TIME STEP   1, STRESS PERIOD    2



          TIME SUMMARY AT END OF TIME STEP   1 IN STRESS PERIOD    2
                    SECONDS     MINUTES      HOURS       DAYS        YEARS
                    -----------------------------------------------------------
   TIME STEP LENGTH 7.62375E+06 1.27062E+05  2117.7      88.238     0.24158    
 STRESS PERIOD TIME 7.62375E+06 1.27062E+05  2117.7      88.238     0.24158    
         TOTAL TIME 1.72876E+10 2.88127E+08 4.80212E+06 2.00088E+05  547.81    
1
 
 SOLVING FOR HEAD 
     3 CALLS TO PCG ROUTINE FOR TIME STEP   2 IN STRESS PERIOD    2
    29 TOTAL ITERATIONS

 MAXIMUM HEAD CHANGE FOR EACH ITERATION (1 INDICATES THE FIRST INNER ITERATION):

    HEAD CHANGE    HEAD CHANGE    HEAD CHANGE    HEAD CHANGE    HEAD CHANGE 
   LAYER,ROW,COL  LAYER,ROW,COL  LAYER,ROW,COL  LAYER,ROW,COL  LAYER,ROW,COL
 ---------------------------------------------------------------------------
  1  -1.198      0 -0.3148      0  0.1893      0  0.1933      0 -0.5316E-01
   (  5,  5,  1)  (  5,  1, 25)  (  3, 16,  1)  (  3,  1, 24)  (  5, 25,  1)
  0  0.5859E-01  0  0.2689E-01  0  0.1974E-01  0 -0.4728E-02  0  0.2800E-02
   (  3, 24, 24)  (  3, 25, 24)  (  3,  5, 24)  (  4, 24, 18)  (  3,  1, 24)
  0 -0.2280E-02  0 -0.2565E-02  0 -0.2457E-02  0 -0.1695E-02  0 -0.9417E-03
   (  3,  3, 24)  (  3,  2, 24)  (  3,  2, 24)  (  3,  9, 24)  (  3,  1, 24)
  0 -0.3415E-03  0  0.1523E-03  0  0.8154E-04  1 -0.5767E-02  0  0.2515E-02
   (  3, 24, 23)  (  3, 17,  1)  (  3, 24, 24)  (  1,  3, 23)  (  5,  1, 20)
  0  0.2390E-02  0  0.1873E-02  0  0.4622E-03  0  0.5009E-03  0  0.2129E-03
   (  3,  1,  1)  (  3, 18,  1)  (  3, 24,  1)  (  1, 25, 21)  (  1, 25, 21)
  0 -0.1200E-03  0 -0.1185E-03  0 -0.5606E-04  1  0.7409E-04
   (  3, 24, 18)  (  3,  2, 24)  (  3,  2, 24)  (  3,  1, 22)

 MAXIMUM RESIDUAL FOR EACH ITERATION (1 INDICATES THE FIRST INNER ITERATION):

    RESIDUAL       RESIDUAL       RESIDUAL       RESIDUAL       RESIDUAL    
   LAYER,ROW,COL  LAYER,ROW,COL  LAYER,ROW,COL  LAYER,ROW,COL  LAYER,ROW,COL
 ---------------------------------------------------------------------------
  1   328.2      0  -465.5      0  -512.8      0  -309.0      0  -265.6    
   (  5, 11, 25)  (  5, 15, 25)  (  5,  7, 25)  (  2, 25, 24)  (  2, 25, 24)
  0   149.5      0   118.4      0  -75.65      0  -48.65      0  -35.60    
   (  1,  1, 25)  (  1,  1, 25)  (  5,  3, 25)  (  2,  1, 24)  (  2,  1, 24)
  0   24.63      0   15.43      0   9.324      0   5.293      0   3.623    
   (  1,  1, 25)  (  1,  1, 25)  (  1,  1, 25)  (  1,  1, 25)  (  1,  1, 25)
  0   2.601      0   1.887      0   1.382      1   18.11      0   14.54    
   (  1,  1, 25)  (  1,  1, 25)  (  1,  1, 25)  (  1,  4, 25)  (  1, 13, 25)
  0   7.195      0  -5.931      0  -4.600      0  -1.805      0  -1.111    
   (  1,  1, 25)  (  2,  1, 24)  (  2,  1, 24)  (  2,  1, 24)  (  1,  2, 21)
  0 -0.7156      0 -0.4926      0  0.4118      1 -0.4514    
   (  1,  2, 22)  (  1,  2, 22)  (  2,  2, 21)  (  1,  1, 22)



 OUTPUT CONTROL FOR STRESS PERIOD    2   TIME STEP   2
    SAVE BUDGET
    PRINT HEAD FOR ALL LAYERS
    SAVE HEAD FOR ALL LAYERS
 UBDSV1 SAVING "         STORAGE" ON UNIT  53 AT TIME STEP  2, STRESS PERIOD   2
 UBDSV2 SAVING "   CONSTANT HEAD" ON UNIT  53 AT TIME STEP  2, STRESS PERIOD   2
 UBDSV1 SAVING "FLOW RIGHT FACE " ON UNIT  53 AT TIME STEP  2, STRESS PERIOD   2
 UBDSV1 SAVING "FLOW FRONT FACE " ON UNIT  53 AT TIME STEP  2, STRESS PERIOD   2
 UBDSV1 SAVING "FLOW LOWER FACE " ON UNIT  53 AT TIME STEP  2, STRESS PERIOD   2
 UBDSV4 SAVING "           WELLS" ON UNIT  53 AT TIME STEP  2, STRESS PERIOD   2
 UBDSV4 SAVING "   RIVER LEAKAGE" ON UNIT  53 AT TIME STEP  2, STRESS PERIOD   2
 UBDSV3 SAVING "        RECHARGE" ON UNIT  53 AT TIME STEP  2, STRESS PERIOD   2
1
              HEAD IN LAYER   1 AT END OF TIME STEP   2 IN STRESS PERIOD    2
  ---------------------------------------------------------------------------

            1           2           3           4           5           6           7           8           9          10
           11          12          13          14          15          16          17          18          19          20
           21          22          23          24          25
 ........................................................................................................................
   1    345.7       345.6       345.5       345.4       345.2       344.9       344.6       344.3       343.8       343.3    
        342.8       342.1       341.4       340.6       339.7       338.6       337.5       336.1       334.6       333.0    
        331.1       328.9       326.4       323.6       320.2    
   2    345.7       345.6       345.5       345.4       345.2       344.9       344.6       344.2       343.8       343.3    
        342.8       342.1       341.4       340.6       339.7       338.6       337.5       336.1       334.6       333.0    
        331.1       328.9       326.4       323.6       320.2    
   3    345.6       345.6       345.5       345.4       345.2       344.9       344.6       344.2       343.8       343.3    
        342.8       342.1       341.4       340.6       339.7       338.6       337.5       336.1       334.6       333.0    
        331.1       328.9       326.4       323.6       320.2    
   4    345.6       345.6       345.5       345.4       345.2       344.9       344.6       344.2       343.8       343.3    
        342.8       342.1       341.4       340.6       339.7       338.6       337.5       336.1       334.6       333.0    
        331.0       328.9       326.4       323.6       320.2    
   5    345.6       345.6       345.5       345.4       345.2       344.9       344.6       344.2       343.8       343.3    
        342.8       342.1       341.4       340.6       339.7       338.6       337.4       336.1       334.6       333.0    
        331.0       328.9       326.4       323.6       320.2    
   6    345.6       345.6       345.5       345.3       345.2       344.9       344.6       344.2       343.8       343.3    
        342.8       342.1       341.4       340.6       339.6       338.6       337.4       336.1       334.6       332.9    
        331.0       328.9       326.4       323.6       320.2    
   7    345.6       345.6       345.5       345.3       345.1       344.9       344.6       344.2       343.8       343.3    
        342.7       342.1       341.4       340.6       339.6       338.6       337.4       336.1       334.6       332.9    
        331.0       328.9       326.4       323.6       320.2    
   8    345.6       345.6       345.5       345.3       345.1       344.9       344.6       344.2       343.8       343.3    
        342.7       342.1       341.4       340.6       339.6       338.6       337.4       336.1       334.6       332.9    
        331.0       328.9       326.4       323.6       320.2    
   9    345.6       345.6       345.5       345.3       345.1       344.9       344.6       344.2       343.8       343.3    
        342.7       342.1       341.4       340.5       339.6       338.6       337.4       336.1       334.6       332.9    
        331.0       328.9       326.4       323.6       320.2    
  10    345.6       345.6       345.5       345.3       345.1       344.9       344.6       344.2       343.8       343.3    
        342.7       342.1       341.3       340.5       339.6       338.6       337.4       336.1       334.6       332.9    
        331.0       328.9       326.4       323.6       320.2    
  11    345.6       345.6       345.5       345.3       345.1       344.9       344.6       344.2       343.8       343.3    
        342.7       342.1       341.3       340.5       339.6       338.6       337.4       336.1       334.6       332.9    
        331.0       328.9       326.4       323.6       320.2    
  12    345.6       345.6       345.5       345.3       345.1       344.9       344.6       344.2       343.8       343.3    
        342.7       342.1       341.3       340.5       339.6       338.6       337.4       336.1       334.6       332.9    
        331.0       328.9       326.4       323.6       320.2    
  13    345.6       345.6       345.5       345.3       345.1       344.9       344.6       344.2       343.8       343.3    
        342.7       342.0       341.3       340.5       339.6       338.6       337.4       336.1       334.6       332.9    
        331.0       328.9       326.4       323.6       320.2    
  14    345.6       345.6       345.5       345.3       345.1       344.9       344.6       344.2       343.8       343.3    
        342.7       342.1       341.3       340.5       339.6       338.6       337.4       336.1       334.6       332.9    
        331.0       328.9       326.4       323.6       320.2    
  15    345.6       345.6       345.5       345.3       345.1       344.9       344.6       344.2       343.8       343.3    
        342.7       342.1       341.3       340.5       339.6       338.6       337.4       336.1       334.6       332.9    
        331.0       328.9       326.4       323.6       320.2    
  16    345.6       345.6       345.5       345.3       345.1       344.9       344.6       344.2       343.8       343.3    
        342.7       342.1       341.3       340.5       339.6       338.6       337.4       336.1       334.6       332.9    
        331.0       328.9       326.4       323.6       320.2    
  17    345.6       345.6       345.5       345.3       345.1       344.9       344.6       344.2       343.8       343.3    
        342.7       342.1       341.4       340.5       339.6       338.6       337.4       336.1       334.6       332.9    
        331.0       328.9       326.4       323.6       320.2    
  18    345.6       345.6       345.5       345.3       345.1       344.9       344.6       344.2       343.8       343.3    
        342.7       342.1       341.4       340.6       339.6       338.6       337.4       336.1       334.6       332.9    
        331.0       328.9       326.4       323.6       320.2    
  19    345.6       345.6       345.5       345.3       345.1       344.9       344.6       344.2       343.8       343.3    
        342.7       342.1       341.4       340.6       339.6       338.6       337.4       336.1       334.6       332.9    
        331.0       328.9       326.4       323.6       320.2    
  20    345.6       345.6       345.5       345.3       345.2       344.9       344.6       344.2       343.8       343.3    
        342.8       342.1       341.4       340.6       339.6       338.6       337.4       336.1       334.6       332.9    
        331.0       328.9       326.4       323.6       320.2    
  21    345.6       345.6       345.5       345.4       345.2       344.9       344.6       344.2       343.8       343.3    
        342.8       342.1       341.4       340.6       339.7       338.6       337.4       336.1       334.6       333.0    
        331.0       328.9       326.4       323.6       320.2    
  22    345.6       345.6       345.5       345.4       345.2       344.9       344.6       344.2       343.8       343.3    
        342.8       342.1       341.4       340.6       339.7       338.6       337.5       336.1       334.6       333.0    
        331.0       328.9       326.4       323.6       320.2    
  23    345.6       345.6       345.5       345.4       345.2       344.9       344.6       344.2       343.8       343.3    
        342.8       342.1       341.4       340.6       339.7       338.6       337.5       336.1       334.6       333.0    
        331.1       328.9       326.4       323.6       320.2    
  24    345.7       345.6       345.5       345.4       345.2       344.9       344.6       344.2       343.8       343.3    
        342.8       342.1       341.4       340.6       339.7       338.6       337.5       336.1       334.6       333.0    
        331.1       328.9       326.4       323.6       320.2    
  25    345.7       345.6       345.5       345.4       345.2       344.9       344.6       344.3       343.8       343.3    
        342.8       342.1       341.4       340.6       339.7       338.6       337.5       336.1       334.6       333.0    
        331.1       328.9       326.4       323.6       320.2    
1
              HEAD IN LAYER   2 AT END OF TIME STEP   2 IN STRESS PERIOD    2
  ---------------------------------------------------------------------------

            1           2           3           4           5           6           7           8           9          10
           11          12          13          14          15          16          17          18          19          20
           21          22          23          24          25
 ........................................................................................................................
   1    345.6       345.6       345.5       345.3       345.1       344.9       344.6       344.2       343.8       343.3    
        342.8       342.1       341.4       340.6       339.7       338.6       337.4       336.1       334.6       333.0    
        331.0       328.9       326.4       323.6       320.5    
   2    345.6       345.6       345.5       345.3       345.1       344.9       344.6       344.2       343.8       343.3    
        342.7       342.1       341.4       340.6       339.7       338.6       337.4       336.1       334.6       332.9    
        331.0       328.9       326.4       323.6       320.5    
   3    345.6       345.6       345.5       345.3       345.1       344.9       344.6       344.2       343.8       343.3    
        342.7       342.1       341.4       340.6       339.6       338.6       337.4       336.1       334.6       332.9    
        331.0       328.9       326.4       323.6       320.5    
   4    345.6       345.6       345.5       345.3       345.1       344.9       344.6       344.2       343.8       343.3    
        342.7       342.1       341.4       340.6       339.6       338.6       337.4       336.1       334.6       332.9    
        331.0       328.9       326.4       323.6       320.5    
   5    345.6       345.6       345.5       345.3       345.1       344.9       344.6       344.2       343.8       343.3    
        342.7       342.1       341.4       340.6       339.6       338.6       337.4       336.1       334.6       332.9    
        331.0       328.9       326.4       323.6       320.5    
   6    345.6       345.6       345.5       345.3       345.1       344.9       344.6       344.2       343.8       343.3    
        342.7       342.1       341.4       340.5       339.6       338.6       337.4       336.1       334.6       332.9    
        331.0       328.9       326.4       323.6       320.5    
   7    345.6       345.6       345.5       345.3       345.1       344.9       344.6       344.2       343.8       343.3    
        342.7       342.1       341.4       340.5       339.6       338.6       337.4       336.1       334.6       332.9    
        331.0       328.9       326.4       323.6       320.5    
   8    345.6       345.6       345.5       345.3       345.1       344.9       344.6       344.2       343.8       343.3    
        342.7       342.1       341.3       340.5       339.6       338.6       337.4       336.1       334.6       332.9    
        331.0       328.9       326.4       323.6       320.5    
   9    345.6       345.6       345.5       345.3       345.1       344.9       344.5       344.2       343.8       343.3    
        342.7       342.1       341.3       340.5       339.6       338.6       337.4       336.1       334.6       332.9    
        331.0       328.9       326.4       323.6       320.5    
  10    345.6       345.5       345.5       345.3       345.1       344.9       344.5       344.2       343.7       343.3    
        342.7       342.0       341.3       340.5       339.6       338.6       337.4       336.1       334.6       332.9    
        331.0       328.9       326.4       323.6       320.5    
  11    345.6       345.5       345.4       345.3       345.1       344.8       344.5       344.2       343.7       343.2    
        342.7       342.0       341.3       340.5       339.6       338.5       337.4       336.1       334.6       332.9    
        331.0       328.9       326.4       323.6       320.5    
  12    345.6       345.5       345.4       345.3       345.1       344.8       344.5       344.2       343.7       343.2    
        342.7       342.0       341.3       340.5       339.6       338.5       337.4       336.1       334.6       332.9    
        331.0       328.9       326.4       323.6       320.5    
  13    345.6       345.5       345.4       345.3       345.1       344.8       344.5       344.2       343.7       343.2    
        342.7       342.0       341.3       340.5       339.6       338.5       337.4       336.1       334.6       332.9    
        331.0       328.9       326.4       323.6       320.5    
  14    345.6       345.5       345.4       345.3       345.1       344.8       344.5       344.2       343.7       343.2    
        342.7       342.0       341.3       340.5       339.6       338.5       337.4       336.1       334.6       332.9    
        331.0       328.9       326.4       323.6       320.5    
  15    345.6       345.5       345.4       345.3       345.1       344.8       344.5       344.2       343.7       343.2    
        342.7       342.0       341.3       340.5       339.6       338.5       337.4       336.1       334.6       332.9    
        331.0       328.9       326.4       323.6       320.5    
  16    345.6       345.5       345.5       345.3       345.1       344.9       344.5       344.2       343.7       343.3    
        342.7       342.0       341.3       340.5       339.6       338.6       337.4       336.1       334.6       332.9    
        331.0       328.9       326.4       323.6       320.5    
  17    345.6       345.6       345.5       345.3       345.1       344.9       344.5       344.2       343.8       343.3    
        342.7       342.1       341.3       340.5       339.6       338.6       337.4       336.1       334.6       332.9    
        331.0       328.9       326.4       323.6       320.5    
  18    345.6       345.6       345.5       345.3       345.1       344.9       344.6       344.2       343.8       343.3    
        342.7       342.1       341.3       340.5       339.6       338.6       337.4       336.1       334.6       332.9    
        331.0       328.9       326.4       323.6       320.5    
  19    345.6       345.6       345.5       345.3       345.1       344.9       344.6       344.2       343.8       343.3    
        342.7       342.1       341.4       340.5       339.6       338.6       337.4       336.1       334.6       332.9    
        331.0       328.9       326.4       323.6       320.5    
  20    345.6       345.6       345.5       345.3       345.1       344.9       344.6       344.2       343.8       343.3    
        342.7       342.1       341.4       340.5       339.6       338.6       337.4       336.1       334.6       332.9    
        331.0       328.9       326.4       323.6       320.5    
  21    345.6       345.6       345.5       345.3       345.1       344.9       344.6       344.2       343.8       343.3    
        342.7       342.1       341.4       340.6       339.6       338.6       337.4       336.1       334.6       332.9    
        331.0       328.9       326.4       323.6       320.5    
  22    345.6       345.6       345.5       345.3       345.1       344.9       344.6       344.2       343.8       343.3    
        342.7       342.1       341.4       340.6       339.6       338.6       337.4       336.1       334.6       332.9    
        331.0       328.9       326.4       323.6       320.5    
  23    345.6       345.6       345.5       345.3       345.1       344.9       344.6       344.2       343.8       343.3    
        342.7       342.1       341.4       340.6       339.6       338.6       337.4       336.1       334.6       332.9    
        331.0       328.9       326.4       323.6       320.5    
  24    345.6       345.6       345.5       345.3       345.1       344.9       344.6       344.2       343.8       343.3    
        342.7       342.1       341.4       340.6       339.7       338.6       337.4       336.1       334.6       332.9    
        331.0       328.9       326.4       323.6       320.5    
  25    345.6       345.6       345.5       345.3       345.1       344.9       344.6       344.2       343.8       343.3    
        342.8       342.1       341.4       340.6       339.7       338.6       337.4       336.1       334.6       333.0    
        331.0       328.9       326.4       323.6       320.5    
1
              HEAD IN LAYER   3 AT END OF TIME STEP   2 IN STRESS PERIOD    2
  ---------------------------------------------------------------------------

            1           2           3           4           5           6           7           8           9          10
           11          12          13          14          15          16          17          18          19          20
           21          22          23          24          25
 ........................................................................................................................
   1    341.4       341.3       341.3       341.2       341.1       340.9       340.7       340.5       340.2       339.9    
        339.6       339.2       338.8       338.3       337.8       337.2       336.6       335.8       335.0       334.1    
        333.1       332.0       330.7       329.3       327.7    
   2    341.4       341.3       341.3       341.2       341.1       340.9       340.7       340.5       340.2       339.9    
        339.6       339.2       338.8       338.3       337.8       337.2       336.5       335.8       335.0       334.1    
        333.1       332.0       330.7       329.3       327.7    
   3    341.4       341.3       341.3       341.2       341.1       340.9       340.7       340.5       340.2       339.9    
        339.6       339.2       338.8       338.3       337.8       337.2       336.5       335.8       335.0       334.1    
        333.1       332.0       330.7       329.3       327.7    
   4    341.4       341.3       341.3       341.2       341.0       340.9       340.7       340.5       340.2       339.9    
        339.6       339.2       338.7       338.3       337.8       337.2       336.5       335.8       335.0       334.1    
        333.1       332.0       330.7       329.3       327.7    
   5    341.4       341.3       341.3       341.2       341.0       340.9       340.7       340.4       340.2       339.9    
        339.5       339.1       338.7       338.3       337.7       337.1       336.5       335.8       335.0       334.1    
        333.1       332.0       330.7       329.3       327.7    
   6    341.4       341.3       341.3       341.2       341.0       340.9       340.7       340.4       340.2       339.8    
        339.5       339.1       338.7       338.2       337.7       337.1       336.5       335.8       335.0       334.1    
        333.1       332.0       330.7       329.3       327.7    
   7    341.3       341.3       341.2       341.1       341.0       340.8       340.6       340.4       340.1       339.8    
        339.5       339.1       338.7       338.2       337.7       337.1       336.5       335.7       335.0       334.1    
        333.1       332.0       330.7       329.2       327.7    
   8    341.3       341.3       341.2       341.1       341.0       340.8       340.6       340.4       340.1       339.8    
        339.4       339.0       338.6       338.1       337.6       337.1       336.4       335.7       334.9       334.1    
        333.1       331.9       330.7       329.2       327.7    
   9    341.3       341.3       341.2       341.1       341.0       340.8       340.6       340.4       340.1       339.7    
        339.4       339.0       338.5       338.1       337.6       337.0       336.4       335.7       334.9       334.0    
        333.0       331.9       330.7       329.2       327.7    
  10    341.3       341.3       341.2       341.1       341.0       340.8       340.6       340.3       340.0       339.7    
        339.3       338.9       338.4       338.0       337.5       337.0       336.4       335.7       334.9       334.0    
        333.0       331.9       330.7       329.2       327.7    
  11    341.3       341.3       341.2       341.1       341.0       340.8       340.6       340.3       340.0       339.6    
        339.2       338.8       338.3       337.9       337.4       336.9       336.3       335.6       334.9       334.0    
        333.0       331.9       330.7       329.2       327.7    
  12    341.3       341.3       341.2       341.1       341.0       340.8       340.6       340.3       340.0       339.6    
        339.2       338.7       338.2       337.8       337.4       336.9       336.3       335.6       334.9       334.0    
        333.0       331.9       330.7       329.2       327.7    
  13    341.3       341.3       341.2       341.1       341.0       340.8       340.6       340.3       340.0       339.6    
        339.1       338.6       337.9       337.7       337.3       336.9       336.3       335.6       334.9       334.0    
        333.0       331.9       330.7       329.2       327.7    
  14    341.3       341.3       341.2       341.1       341.0       340.8       340.6       340.3       340.0       339.6    
        339.2       338.7       338.2       337.8       337.4       336.9       336.3       335.6       334.9       334.0    
        333.0       331.9       330.7       329.2       327.7    
  15    341.3       341.3       341.2       341.1       341.0       340.8       340.6       340.3       340.0       339.6    
        339.2       338.8       338.3       337.9       337.4       336.9       336.3       335.6       334.9       334.0    
        333.0       331.9       330.7       329.2       327.7    
  16    341.3       341.3       341.2       341.1       341.0       340.8       340.6       340.3       340.0       339.7    
        339.3       338.9       338.4       338.0       337.5       337.0       336.4       335.7       334.9       334.0    
        333.0       331.9       330.7       329.2       327.7    
  17    341.3       341.3       341.2       341.1       341.0       340.8       340.6       340.4       340.1       339.7    
        339.4       339.0       338.5       338.1       337.6       337.0       336.4       335.7       334.9       334.0    
        333.0       331.9       330.7       329.2       327.7    
  18    341.3       341.3       341.2       341.1       341.0       340.8       340.6       340.4       340.1       339.8    
        339.4       339.0       338.6       338.1       337.6       337.1       336.4       335.7       334.9       334.1    
        333.1       331.9       330.7       329.2       327.7    
  19    341.3       341.3       341.2       341.1       341.0       340.8       340.6       340.4       340.1       339.8    
        339.5       339.1       338.7       338.2       337.7       337.1       336.5       335.7       335.0       334.1    
        333.1       332.0       330.7       329.2       327.7    
  20    341.4       341.3       341.3       341.2       341.0       340.9       340.7       340.4       340.2       339.8    
        339.5       339.1       338.7       338.2       337.7       337.1       336.5       335.8       335.0       334.1    
        333.1       332.0       330.7       329.3       327.7    
  21    341.4       341.3       341.3       341.2       341.0       340.9       340.7       340.4       340.2       339.9    
        339.5       339.1       338.7       338.3       337.7       337.2       336.5       335.8       335.0       334.1    
        333.1       332.0       330.7       329.3       327.7    
  22    341.4       341.3       341.3       341.2       341.0       340.9       340.7       340.5       340.2       339.9    
        339.6       339.2       338.7       338.3       337.8       337.2       336.5       335.8       335.0       334.1    
        333.1       332.0       330.7       329.3       327.7    
  23    341.4       341.3       341.3       341.2       341.1       340.9       340.7       340.5       340.2       339.9    
        339.6       339.2       338.8       338.3       337.8       337.2       336.5       335.8       335.0       334.1    
        333.1       332.0       330.7       329.3       327.7    
  24    341.4       341.3       341.3       341.2       341.1       340.9       340.7       340.5       340.2       339.9    
        339.6       339.2       338.8       338.3       337.8       337.2       336.5       335.8       335.0       334.1    
        333.1       332.0       330.7       329.3       327.7    
  25    341.4       341.3       341.3       341.2       341.1       340.9       340.7       340.5       340.2       339.9    
        339.6       339.2       338.8       338.3       337.8       337.2       336.6       335.8       335.0       334.1    
        333.1       332.0       330.7       329.3       327.7    
1
              HEAD IN LAYER   4 AT END OF TIME STEP   2 IN STRESS PERIOD    2
  ---------------------------------------------------------------------------

            1           2           3           4           5           6           7           8           9          10
           11          12          13          14          15          16          17          18          19          20
           21          22          23          24          25
 ........................................................................................................................
   1    337.1       337.1       337.1       337.0       337.0       336.9       336.8       336.7       336.6       336.5    
        336.4       336.3       336.2       336.0       335.9       335.8       335.6       335.5       335.4       335.3    
        335.2       335.1       335.0       335.0       334.9    
   2    337.1       337.1       337.1       337.0       337.0       336.9       336.8       336.7       336.6       336.5    
        336.4       336.3       336.1       336.0       335.9       335.8       335.6       335.5       335.4       335.3    
        335.2       335.1       335.0       335.0       334.9    
   3    337.1       337.1       337.1       337.0       337.0       336.9       336.8       336.7       336.6       336.5    
        336.4       336.2       336.1       336.0       335.9       335.7       335.6       335.5       335.4       335.3    
        335.2       335.1       335.0       335.0       334.9    
   4    337.1       337.1       337.1       337.0       337.0       336.9       336.8       336.7       336.6       336.5    
        336.3       336.2       336.1       336.0       335.8       335.7       335.6       335.5       335.4       335.3    
        335.2       335.1       335.0       334.9       334.9    
   5    337.1       337.1       337.0       337.0       336.9       336.9       336.8       336.7       336.6       336.4    
        336.3       336.2       336.1       335.9       335.8       335.7       335.6       335.5       335.3       335.2    
        335.1       335.1       335.0       334.9       334.9    
   6    337.1       337.1       337.0       337.0       336.9       336.8       336.7       336.6       336.5       336.4    
        336.3       336.1       336.0       335.9       335.8       335.6       335.5       335.4       335.3       335.2    
        335.1       335.0       335.0       334.9       334.9    
   7    337.1       337.1       337.0       337.0       336.9       336.8       336.7       336.6       336.5       336.3    
        336.2       336.1       335.9       335.8       335.7       335.6       335.5       335.4       335.3       335.2    
        335.1       335.0       335.0       334.9       334.9    
   8    337.1       337.0       337.0       336.9       336.9       336.8       336.7       336.6       336.4       336.3    
        336.1       336.0       335.8       335.7       335.6       335.5       335.4       335.3       335.3       335.2    
        335.1       335.0       334.9       334.9       334.9    
   9    337.0       337.0       337.0       336.9       336.9       336.8       336.6       336.5       336.4       336.2    
        336.0       335.9       335.7       335.6       335.5       335.5       335.4       335.3       335.2       335.1    
        335.1       335.0       334.9       334.9       334.9    
  10    337.0       337.0       337.0       336.9       336.8       336.7       336.6       336.5       336.3       336.1    
        335.9       335.7       335.6       335.5       335.4       335.4       335.3       335.3       335.2       335.1    
        335.0       335.0       334.9       334.9       334.8    
  11    337.0       337.0       337.0       336.9       336.8       336.7       336.6       336.4       336.2       336.0    
        335.8       335.5       335.3       335.3       335.3       335.3       335.3       335.2       335.2       335.1    
        335.0       335.0       334.9       334.9       334.8    
  12    337.0       337.0       337.0       336.9       336.8       336.7       336.6       336.4       336.2       335.9    
        335.6       335.3       335.0       335.1       335.1       335.2       335.2       335.2       335.1       335.1    
        335.0       335.0       334.9       334.9       334.8    
  13    337.0       337.0       337.0       336.9       336.8       336.7       336.6       336.4       336.2       335.9    
        335.6       335.1       334.5       334.9       335.1       335.2       335.2       335.2       335.1       335.1    
        335.0       335.0       334.9       334.9       334.8    
  14    337.0       337.0       337.0       336.9       336.8       336.7       336.6       336.4       336.2       335.9    
        335.6       335.3       335.0       335.1       335.1       335.2       335.2       335.2       335.1       335.1    
        335.0       335.0       334.9       334.9       334.8    
  15    337.0       337.0       337.0       336.9       336.8       336.7       336.6       336.4       336.2       336.0    
        335.8       335.5       335.3       335.3       335.3       335.3       335.3       335.2       335.2       335.1    
        335.0       335.0       334.9       334.9       334.8    
  16    337.0       337.0       337.0       336.9       336.8       336.7       336.6       336.5       336.3       336.1    
        335.9       335.7       335.6       335.5       335.4       335.4       335.3       335.3       335.2       335.1    
        335.0       335.0       334.9       334.9       334.8    
  17    337.0       337.0       337.0       336.9       336.9       336.8       336.6       336.5       336.4       336.2    
        336.0       335.9       335.7       335.6       335.5       335.5       335.4       335.3       335.2       335.1    
        335.1       335.0       334.9       334.9       334.9    
  18    337.1       337.0       337.0       336.9       336.9       336.8       336.7       336.6       336.4       336.3    
        336.1       336.0       335.8       335.7       335.6       335.5       335.4       335.3       335.3       335.2    
        335.1       335.0       334.9       334.9       334.9    
  19    337.1       337.1       337.0       337.0       336.9       336.8       336.7       336.6       336.5       336.3    
        336.2       336.1       335.9       335.8       335.7       335.6       335.5       335.4       335.3       335.2    
        335.1       335.0       335.0       334.9       334.9    
  20    337.1       337.1       337.0       337.0       336.9       336.8       336.7       336.6       336.5       336.4    
        336.3       336.1       336.0       335.9       335.8       335.6       335.5       335.4       335.3       335.2    
        335.1       335.0       335.0       334.9       334.9    
  21    337.1       337.1       337.0       337.0       336.9       336.9       336.8       336.7       336.6       336.4    
        336.3       336.2       336.1       335.9       335.8       335.7       335.6       335.5       335.3       335.2    
        335.1       335.1       335.0       334.9       334.9    
  22    337.1       337.1       337.1       337.0       337.0       336.9       336.8       336.7       336.6       336.5    
        336.3       336.2       336.1       336.0       335.8       335.7       335.6       335.5       335.4       335.3    
        335.2       335.1       335.0       334.9       334.9    
  23    337.1       337.1       337.1       337.0       337.0       336.9       336.8       336.7       336.6       336.5    
        336.4       336.2       336.1       336.0       335.9       335.7       335.6       335.5       335.4       335.3    
        335.2       335.1       335.0       335.0       334.9    
  24    337.1       337.1       337.1       337.0       337.0       336.9       336.8       336.7       336.6       336.5    
        336.4       336.3       336.1       336.0       335.9       335.8       335.6       335.5       335.4       335.3    
        335.2       335.1       335.0       335.0       334.9    
  25    337.1       337.1       337.1       337.0       337.0       336.9       336.8       336.7       336.6       336.5    
        336.4       336.3       336.2       336.0       335.9       335.8       335.6       335.5       335.4       335.3    
        335.2       335.1       335.0       335.0       334.9    
1
              HEAD IN LAYER   5 AT END OF TIME STEP   2 IN STRESS PERIOD    2
  ---------------------------------------------------------------------------

            1           2           3           4           5           6           7           8           9          10
           11          12          13          14          15          16          17          18          19          20
           21          22          23          24          25
 ........................................................................................................................
   1    337.1       337.1       337.1       337.0       337.0       336.9       336.8       336.7       336.6       336.5    
        336.4       336.3       336.1       336.0       335.9       335.8       335.6       335.5       335.4       335.3    
        335.2       335.1       335.0       335.0       334.9    
   2    337.1       337.1       337.1       337.0       337.0       336.9       336.8       336.7       336.6       336.5    
        336.4       336.3       336.1       336.0       335.9       335.8       335.6       335.5       335.4       335.3    
        335.2       335.1       335.0       335.0       334.9    
   3    337.1       337.1       337.1       337.0       337.0       336.9       336.8       336.7       336.6       336.5    
        336.4       336.2       336.1       336.0       335.9       335.7       335.6       335.5       335.4       335.3    
        335.2       335.1       335.0       335.0       334.9    
   4    337.1       337.1       337.0       337.0       336.9       336.9       336.8       336.7       336.6       336.5    
        336.3       336.2       336.1       336.0       335.8       335.7       335.6       335.5       335.4       335.3    
        335.2       335.1       335.0       335.0       334.9    
   5    337.1       337.1       337.0       337.0       336.9       336.8       336.8       336.7       336.5       336.4    
        336.3       336.2       336.0       335.9       335.8       335.7       335.6       335.5       335.3       335.2    
        335.2       335.1       335.0       334.9       334.9    
   6    337.1       337.1       337.0       337.0       336.9       336.8       336.7       336.6       336.5       336.4    
        336.3       336.1       336.0       335.9       335.8       335.6       335.5       335.4       335.3       335.2    
        335.1       335.1       335.0       334.9       334.9    
   7    337.1       337.0       337.0       337.0       336.9       336.8       336.7       336.6       336.5       336.3    
        336.2       336.1       335.9       335.8       335.7       335.6       335.5       335.4       335.3       335.2    
        335.1       335.0       335.0       334.9       334.9    
   8    337.0       337.0       337.0       336.9       336.9       336.8       336.7       336.5       336.4       336.3    
        336.1       336.0       335.8       335.7       335.6       335.5       335.4       335.3       335.3       335.2    
        335.1       335.0       335.0       334.9       334.9    
   9    337.0       337.0       337.0       336.9       336.8       336.7       336.6       336.5       336.3       336.2    
        336.0       335.9       335.7       335.6       335.5       335.4       335.4       335.3       335.2       335.1    
        335.1       335.0       334.9       334.9       334.9    
  10    337.0       337.0       337.0       336.9       336.8       336.7       336.6       336.5       336.3       336.1    
        335.9       335.7       335.6       335.5       335.4       335.4       335.3       335.3       335.2       335.1    
        335.1       335.0       334.9       334.9       334.9    
  11    337.0       337.0       337.0       336.9       336.8       336.7       336.6       336.4       336.2       336.0    
        335.8       335.5       335.3       335.3       335.3       335.3       335.3       335.2       335.2       335.1    
        335.0       335.0       334.9       334.9       334.9    
  12    337.0       337.0       336.9       336.9       336.8       336.7       336.5       336.4       336.2       335.9    
        335.6       335.2       334.8       335.0       335.1       335.2       335.2       335.2       335.1       335.1    
        335.0       335.0       334.9       334.9       334.8    
  13    337.0       337.0       336.9       336.9       336.8       336.7       336.5       336.4       336.2       335.9    
        335.5       334.9       333.4       334.7       335.0       335.2       335.2       335.2       335.1       335.1    
        335.0       335.0       334.9       334.9       334.8    
  14    337.0       337.0       336.9       336.9       336.8       336.7       336.5       336.4       336.2       335.9    
        335.6       335.2       334.8       335.0       335.1       335.2       335.2       335.2       335.1       335.1    
        335.0       335.0       334.9       334.9       334.8    
  15    337.0       337.0       337.0       336.9       336.8       336.7       336.6       336.4       336.2       336.0    
        335.8       335.5       335.3       335.3       335.3       335.3       335.3       335.2       335.2       335.1    
        335.0       335.0       334.9       334.9       334.9    
  16    337.0       337.0       337.0       336.9       336.8       336.7       336.6       336.5       336.3       336.1    
        335.9       335.7       335.6       335.5       335.4       335.4       335.3       335.3       335.2       335.1    
        335.1       335.0       334.9       334.9       334.9    
  17    337.0       337.0       337.0       336.9       336.8       336.7       336.6       336.5       336.3       336.2    
        336.0       335.9       335.7       335.6       335.5       335.4       335.4       335.3       335.2       335.1    
        335.1       335.0       334.9       334.9       334.9    
  18    337.0       337.0       337.0       336.9       336.9       336.8       336.7       336.5       336.4       336.3    
        336.1       336.0       335.8       335.7       335.6       335.5       335.4       335.3       335.3       335.2    
        335.1       335.0       335.0       334.9       334.9    
  19    337.1       337.0       337.0       337.0       336.9       336.8       336.7       336.6       336.5       336.3    
        336.2       336.1       335.9       335.8       335.7       335.6       335.5       335.4       335.3       335.2    
        335.1       335.0       335.0       334.9       334.9    
  20    337.1       337.1       337.0       337.0       336.9       336.8       336.7       336.6       336.5       336.4    
        336.3       336.1       336.0       335.9       335.8       335.6       335.5       335.4       335.3       335.2    
        335.1       335.1       335.0       334.9       334.9    
  21    337.1       337.1       337.0       337.0       336.9       336.8       336.8       336.7       336.5       336.4    
        336.3       336.2       336.0       335.9       335.8       335.7       335.6       335.5       335.3       335.2    
        335.2       335.1       335.0       334.9       334.9    
  22    337.1       337.1       337.0       337.0       336.9       336.9       336.8       336.7       336.6       336.5    
        336.3       336.2       336.1       336.0       335.8       335.7       335.6       335.5       335.4       335.3    
        335.2       335.1       335.0       335.0       334.9    
  23    337.1       337.1       337.1       337.0       337.0       336.9       336.8       336.7       336.6       336.5    
        336.4       336.2       336.1       336.0       335.9       335.7       335.6       335.5       335.4       335.3    
        335.2       335.1       335.0       335.0       334.9    
  24    337.1       337.1       337.1       337.0       337.0       336.9       336.8       336.7       336.6       336.5    
        336.4       336.3       336.1       336.0       335.9       335.8       335.6       335.5       335.4       335.3    
        335.2       335.1       335.0       335.0       334.9    
  25    337.1       337.1       337.1       337.0       337.0       336.9       336.8       336.7       336.6       336.5    
        336.4       336.3       336.1       336.0       335.9       335.8       335.6       335.5       335.4       335.3    
        335.2       335.1       335.0       335.0       334.9    

 HEAD WILL BE SAVED ON UNIT   50 AT END OF TIME STEP   2, STRESS PERIOD    2



          TIME SUMMARY AT END OF TIME STEP   2 IN STRESS PERIOD    2
                    SECONDS     MINUTES      HOURS       DAYS        YEARS
                    -----------------------------------------------------------
   TIME STEP LENGTH 1.14356E+07 1.90594E+05  3176.6      132.36     0.36237    
 STRESS PERIOD TIME 1.90594E+07 3.17656E+05  5294.3      220.59     0.60396    
         TOTAL TIME 1.72991E+10 2.88318E+08 4.80529E+06 2.00221E+05  548.17    
1
 
 SOLVING FOR HEAD 
     3 CALLS TO PCG ROUTINE FOR TIME STEP   3 IN STRESS PERIOD    2
    32 TOTAL ITERATIONS

 MAXIMUM HEAD CHANGE FOR EACH ITERATION (1 INDICATES THE FIRST INNER ITERATION):

    HEAD CHANGE    HEAD CHANGE    HEAD CHANGE    HEAD CHANGE    HEAD CHANGE 
   LAYER,ROW,COL  LAYER,ROW,COL  LAYER,ROW,COL  LAYER,ROW,COL  LAYER,ROW,COL
 ---------------------------------------------------------------------------
  1  -1.139      0 -0.2085      0  0.1383      0  0.1592      0  0.4267E-01
   (  5, 25,  1)  (  5,  1, 25)  (  3,  1, 24)  (  3,  1, 24)  (  3, 17, 24)
  0  0.7502E-01  0 -0.2344E-01  0 -0.7435E-02  0 -0.4171E-02  0 -0.4970E-02
   (  3, 24, 24)  (  5,  1, 25)  (  5,  1, 25)  (  4, 12, 25)  (  3, 23, 24)
  0 -0.5701E-02  0 -0.3497E-02  0 -0.3244E-02  0 -0.1031E-02  0 -0.5570E-03
   (  3,  2, 24)  (  3, 24, 24)  (  3,  1, 24)  (  3,  1, 24)  (  1,  1, 21)
  0 -0.3726E-03  0 -0.2316E-03  0  0.1913E-03  0  0.1444E-03  0  0.9564E-04
   (  1,  1, 22)  (  3, 25, 23)  (  3,  1, 24)  (  3,  1, 24)  (  3,  1, 24)
  1 -0.7529E-02  0  0.3794E-02  0  0.3685E-02  0  0.3466E-02  0  0.9333E-03
   (  2,  3, 23)  (  5,  1, 22)  (  3,  4,  1)  (  3, 19,  1)  (  3, 24,  1)
  0  0.9948E-03  0  0.2862E-03  0 -0.1765E-03  0 -0.1663E-03  0 -0.1705E-03
   (  1, 25, 20)  (  1, 25, 20)  (  3,  8, 24)  (  3, 25, 24)  (  3,  2, 24)
  0 -0.9503E-04  1  0.9356E-04
   (  3, 25, 24)  (  1,  5, 20)

 MAXIMUM RESIDUAL FOR EACH ITERATION (1 INDICATES THE FIRST INNER ITERATION):

    RESIDUAL       RESIDUAL       RESIDUAL       RESIDUAL       RESIDUAL    
   LAYER,ROW,COL  LAYER,ROW,COL  LAYER,ROW,COL  LAYER,ROW,COL  LAYER,ROW,COL
 ---------------------------------------------------------------------------
  1  -553.1      0  -529.1      0  -419.9      0  -316.8      0  -249.5    
   (  2, 25, 24)  (  2, 25, 24)  (  2, 25, 24)  (  2, 25, 24)  (  2, 25, 24)
  0   166.4      0  -129.4      0  -108.5      0  -78.89      0   45.55    
   (  5,  3, 25)  (  2,  1, 24)  (  2,  1, 24)  (  2,  1, 24)  (  1,  1, 25)
  0   26.51      0   12.35      0  -7.730      0   4.757      0   4.103    
   (  1,  1, 25)  (  1,  1, 25)  (  5, 25, 24)  (  1,  2, 25)  (  1,  1, 25)
  0   3.503      0   2.638      0   2.007      0   1.254      0  0.7194    
   (  1,  1, 25)  (  1,  1, 25)  (  1,  1, 25)  (  1,  1, 25)  (  1,  1, 25)
  1   21.24      0   18.12      0   10.69      0  -8.848      0  -7.259    
   (  1,  4, 25)  (  1,  4, 25)  (  1,  1, 25)  (  2,  1, 24)  (  2,  1, 24)
  0  -2.812      0  -1.819      0  -1.357      0 -0.9671      0  0.7299    
   (  2,  1, 24)  (  1,  2, 20)  (  1,  2, 21)  (  1,  2, 22)  (  2,  2, 20)
  0  0.5477      1 -0.5015    
   (  2,  2, 21)  (  1,  1, 22)



 OUTPUT CONTROL FOR STRESS PERIOD    2   TIME STEP   3
    SAVE BUDGET
    PRINT HEAD FOR ALL LAYERS
    SAVE HEAD FOR ALL LAYERS
 UBDSV1 SAVING "         STORAGE" ON UNIT  53 AT TIME STEP  3, STRESS PERIOD   2
 UBDSV2 SAVING "   CONSTANT HEAD" ON UNIT  53 AT TIME STEP  3, STRESS PERIOD   2
 UBDSV1 SAVING "FLOW RIGHT FACE " ON UNIT  53 AT TIME STEP  3, STRESS PERIOD   2
 UBDSV1 SAVING "FLOW FRONT FACE " ON UNIT  53 AT TIME STEP  3, STRESS PERIOD   2
 UBDSV1 SAVING "FLOW LOWER FACE " ON UNIT  53 AT TIME STEP  3, STRESS PERIOD   2
 UBDSV4 SAVING "           WELLS" ON UNIT  53 AT TIME STEP  3, STRESS PERIOD   2
 UBDSV4 SAVING "   RIVER LEAKAGE" ON UNIT  53 AT TIME STEP  3, STRESS PERIOD   2
 UBDSV3 SAVING "        RECHARGE" ON UNIT  53 AT TIME STEP  3, STRESS PERIOD   2
1
              HEAD IN LAYER   1 AT END OF TIME STEP   3 IN STRESS PERIOD    2
  ---------------------------------------------------------------------------

            1           2           3           4           5           6           7           8           9          10
           11          12          13          14          15          16          17          18          19          20
           21          22          23          24          25
 ........................................................................................................................
   1    344.6       344.6       344.5       344.3       344.1       343.9       343.6       343.2       342.8       342.4    
        341.8       341.2       340.5       339.7       338.8       337.8       336.7       335.4       334.0       332.4    
        330.6       328.5       326.1       323.4       320.2    
   2    344.6       344.6       344.5       344.3       344.1       343.9       343.6       343.2       342.8       342.4    
        341.8       341.2       340.5       339.7       338.8       337.8       336.7       335.4       334.0       332.4    
        330.6       328.5       326.1       323.4       320.2    
   3    344.6       344.6       344.5       344.3       344.1       343.9       343.6       343.2       342.8       342.4    
        341.8       341.2       340.5       339.7       338.8       337.8       336.7       335.4       334.0       332.4    
        330.6       328.5       326.1       323.4       320.2    
   4    344.6       344.6       344.5       344.3       344.1       343.9       343.6       343.2       342.8       342.4    
        341.8       341.2       340.5       339.7       338.8       337.8       336.7       335.4       334.0       332.4    
        330.6       328.5       326.1       323.4       320.2    
   5    344.6       344.6       344.5       344.3       344.1       343.9       343.6       343.2       342.8       342.3    
        341.8       341.2       340.5       339.7       338.8       337.8       336.7       335.4       334.0       332.4    
        330.6       328.5       326.1       323.4       320.2    
   6    344.6       344.6       344.5       344.3       344.1       343.9       343.6       343.2       342.8       342.3    
        341.8       341.2       340.5       339.7       338.8       337.8       336.7       335.4       334.0       332.4    
        330.5       328.5       326.1       323.4       320.2    
   7    344.6       344.5       344.5       344.3       344.1       343.9       343.6       343.2       342.8       342.3    
        341.8       341.2       340.5       339.7       338.8       337.8       336.7       335.4       334.0       332.4    
        330.5       328.5       326.1       323.4       320.2    
   8    344.6       344.5       344.4       344.3       344.1       343.9       343.6       343.2       342.8       342.3    
        341.8       341.2       340.5       339.7       338.8       337.8       336.7       335.4       334.0       332.4    
        330.5       328.5       326.1       323.4       320.2    
   9    344.6       344.5       344.4       344.3       344.1       343.9       343.6       343.2       342.8       342.3    
        341.8       341.1       340.4       339.7       338.8       337.8       336.6       335.4       334.0       332.4    
        330.5       328.5       326.1       323.4       320.2    
  10    344.6       344.5       344.4       344.3       344.1       343.9       343.6       343.2       342.8       342.3    
        341.7       341.1       340.4       339.6       338.8       337.8       336.6       335.4       334.0       332.3    
        330.5       328.5       326.1       323.4       320.2    
  11    344.6       344.5       344.4       344.3       344.1       343.8       343.5       343.2       342.8       342.3    
        341.7       341.1       340.4       339.6       338.7       337.8       336.6       335.4       334.0       332.3    
        330.5       328.5       326.1       323.4       320.2    
  12    344.6       344.5       344.4       344.3       344.1       343.8       343.5       343.2       342.8       342.3    
        341.7       341.1       340.4       339.6       338.7       337.7       336.6       335.4       333.9       332.3    
        330.5       328.5       326.1       323.4       320.2    
  13    344.6       344.5       344.4       344.3       344.1       343.8       343.5       343.2       342.8       342.3    
        341.7       341.1       340.4       339.6       338.7       337.7       336.6       335.4       333.9       332.3    
        330.5       328.5       326.1       323.4       320.2    
  14    344.6       344.5       344.4       344.3       344.1       343.8       343.5       343.2       342.8       342.3    
        341.7       341.1       340.4       339.6       338.7       337.7       336.6       335.4       333.9       332.3    
        330.5       328.5       326.1       323.4       320.2    
  15    344.6       344.5       344.4       344.3       344.1       343.8       343.5       343.2       342.8       342.3    
        341.7       341.1       340.4       339.6       338.7       337.8       336.6       335.4       334.0       332.3    
        330.5       328.5       326.1       323.4       320.2    
  16    344.6       344.5       344.4       344.3       344.1       343.9       343.6       343.2       342.8       342.3    
        341.7       341.1       340.4       339.6       338.8       337.8       336.6       335.4       334.0       332.3    
        330.5       328.5       326.1       323.4       320.2    
  17    344.6       344.5       344.4       344.3       344.1       343.9       343.6       343.2       342.8       342.3    
        341.8       341.1       340.4       339.7       338.8       337.8       336.6       335.4       334.0       332.4    
        330.5       328.5       326.1       323.4       320.2    
  18    344.6       344.5       344.4       344.3       344.1       343.9       343.6       343.2       342.8       342.3    
        341.8       341.2       340.5       339.7       338.8       337.8       336.7       335.4       334.0       332.4    
        330.5       328.5       326.1       323.4       320.2    
  19    344.6       344.5       344.5       344.3       344.1       343.9       343.6       343.2       342.8       342.3    
        341.8       341.2       340.5       339.7       338.8       337.8       336.7       335.4       334.0       332.4    
        330.5       328.5       326.1       323.4       320.2    
  20    344.6       344.6       344.5       344.3       344.1       343.9       343.6       343.2       342.8       342.3    
        341.8       341.2       340.5       339.7       338.8       337.8       336.7       335.4       334.0       332.4    
        330.5       328.5       326.1       323.4       320.2    
  21    344.6       344.6       344.5       344.3       344.1       343.9       343.6       343.2       342.8       342.3    
        341.8       341.2       340.5       339.7       338.8       337.8       336.7       335.4       334.0       332.4    
        330.6       328.5       326.1       323.4       320.2    
  22    344.6       344.6       344.5       344.3       344.1       343.9       343.6       343.2       342.8       342.4    
        341.8       341.2       340.5       339.7       338.8       337.8       336.7       335.4       334.0       332.4    
        330.6       328.5       326.1       323.4       320.2    
  23    344.6       344.6       344.5       344.3       344.1       343.9       343.6       343.2       342.8       342.4    
        341.8       341.2       340.5       339.7       338.8       337.8       336.7       335.4       334.0       332.4    
        330.6       328.5       326.1       323.4       320.2    
  24    344.6       344.6       344.5       344.3       344.1       343.9       343.6       343.2       342.8       342.4    
        341.8       341.2       340.5       339.7       338.8       337.8       336.7       335.4       334.0       332.4    
        330.6       328.5       326.1       323.4       320.2    
  25    344.6       344.6       344.5       344.3       344.1       343.9       343.6       343.2       342.8       342.4    
        341.8       341.2       340.5       339.7       338.8       337.8       336.7       335.4       334.0       332.4    
        330.6       328.5       326.1       323.4       320.2    
1
              HEAD IN LAYER   2 AT END OF TIME STEP   3 IN STRESS PERIOD    2
  ---------------------------------------------------------------------------

            1           2           3           4           5           6           7           8           9          10
           11          12          13          14          15          16          17          18          19          20
           21          22          23          24          25
 ........................................................................................................................
   1    344.6       344.5       344.4       344.3       344.1       343.9       343.6       343.2       342.8       342.3    
        341.8       341.2       340.5       339.7       338.8       337.8       336.7       335.4       334.0       332.4    
        330.5       328.5       326.1       323.4       320.4    
   2    344.6       344.5       344.4       344.3       344.1       343.9       343.6       343.2       342.8       342.3    
        341.8       341.2       340.5       339.7       338.8       337.8       336.7       335.4       334.0       332.4    
        330.5       328.5       326.1       323.4       320.4    
   3    344.6       344.5       344.4       344.3       344.1       343.9       343.6       343.2       342.8       342.3    
        341.8       341.2       340.5       339.7       338.8       337.8       336.7       335.4       334.0       332.4    
        330.5       328.5       326.1       323.4       320.4    
   4    344.6       344.5       344.4       344.3       344.1       343.9       343.6       343.2       342.8       342.3    
        341.8       341.2       340.5       339.7       338.8       337.8       336.7       335.4       334.0       332.4    
        330.5       328.5       326.1       323.4       320.4    
   5    344.6       344.5       344.4       344.3       344.1       343.9       343.6       343.2       342.8       342.3    
        341.8       341.2       340.5       339.7       338.8       337.8       336.7       335.4       334.0       332.4    
        330.5       328.5       326.1       323.4       320.4    
   6    344.6       344.5       344.4       344.3       344.1       343.8       343.6       343.2       342.8       342.3    
        341.8       341.1       340.5       339.7       338.8       337.8       336.7       335.4       334.0       332.4    
        330.5       328.5       326.1       323.4       320.4    
   7    344.6       344.5       344.4       344.3       344.1       343.8       343.5       343.2       342.8       342.3    
        341.8       341.1       340.4       339.7       338.8       337.8       336.6       335.4       334.0       332.4    
        330.5       328.5       326.1       323.4       320.4    
   8    344.6       344.5       344.4       344.3       344.1       343.8       343.5       343.2       342.8       342.3    
        341.7       341.1       340.4       339.6       338.8       337.8       336.6       335.4       334.0       332.3    
        330.5       328.5       326.1       323.4       320.4    
   9    344.6       344.5       344.4       344.3       344.1       343.8       343.5       343.2       342.8       342.3    
        341.7       341.1       340.4       339.6       338.7       337.7       336.6       335.4       333.9       332.3    
        330.5       328.5       326.1       323.4       320.4    
  10    344.6       344.5       344.4       344.3       344.1       343.8       343.5       343.2       342.7       342.3    
        341.7       341.1       340.4       339.6       338.7       337.7       336.6       335.4       333.9       332.3    
        330.5       328.5       326.1       323.4       320.4    
  11    344.6       344.5       344.4       344.3       344.1       343.8       343.5       343.2       342.7       342.3    
        341.7       341.1       340.4       339.6       338.7       337.7       336.6       335.4       333.9       332.3    
        330.5       328.5       326.1       323.4       320.4    
  12    344.5       344.5       344.4       344.3       344.1       343.8       343.5       343.2       342.7       342.3    
        341.7       341.1       340.4       339.6       338.7       337.7       336.6       335.4       333.9       332.3    
        330.5       328.4       326.1       323.4       320.4    
  13    344.5       344.5       344.4       344.3       344.1       343.8       343.5       343.2       342.7       342.3    
        341.7       341.1       340.4       339.6       338.7       337.7       336.6       335.4       333.9       332.3    
        330.5       328.4       326.1       323.4       320.4    
  14    344.5       344.5       344.4       344.3       344.1       343.8       343.5       343.2       342.7       342.3    
        341.7       341.1       340.4       339.6       338.7       337.7       336.6       335.4       333.9       332.3    
        330.5       328.4       326.1       323.4       320.4    
  15    344.6       344.5       344.4       344.3       344.1       343.8       343.5       343.2       342.7       342.3    
        341.7       341.1       340.4       339.6       338.7       337.7       336.6       335.4       333.9       332.3    
        330.5       328.5       326.1       323.4       320.4    
  16    344.6       344.5       344.4       344.3       344.1       343.8       343.5       343.2       342.7       342.3    
        341.7       341.1       340.4       339.6       338.7       337.7       336.6       335.4       333.9       332.3    
        330.5       328.5       326.1       323.4       320.4    
  17    344.6       344.5       344.4       344.3       344.1       343.8       343.5       343.2       342.8       342.3    
        341.7       341.1       340.4       339.6       338.7       337.7       336.6       335.4       333.9       332.3    
        330.5       328.5       326.1       323.4       320.4    
  18    344.6       344.5       344.4       344.3       344.1       343.8       343.5       343.2       342.8       342.3    
        341.7       341.1       340.4       339.6       338.8       337.8       336.6       335.4       334.0       332.3    
        330.5       328.5       326.1       323.4       320.4    
  19    344.6       344.5       344.4       344.3       344.1       343.8       343.5       343.2       342.8       342.3    
        341.8       341.1       340.4       339.7       338.8       337.8       336.6       335.4       334.0       332.4    
        330.5       328.5       326.1       323.4       320.4    
  20    344.6       344.5       344.4       344.3       344.1       343.8       343.6       343.2       342.8       342.3    
        341.8       341.1       340.5       339.7       338.8       337.8       336.7       335.4       334.0       332.4    
        330.5       328.5       326.1       323.4       320.4    
  21    344.6       344.5       344.4       344.3       344.1       343.9       343.6       343.2       342.8       342.3    
        341.8       341.2       340.5       339.7       338.8       337.8       336.7       335.4       334.0       332.4    
        330.5       328.5       326.1       323.4       320.4    
  22    344.6       344.5       344.4       344.3       344.1       343.9       343.6       343.2       342.8       342.3    
        341.8       341.2       340.5       339.7       338.8       337.8       336.7       335.4       334.0       332.4    
        330.5       328.5       326.1       323.4       320.4    
  23    344.6       344.5       344.4       344.3       344.1       343.9       343.6       343.2       342.8       342.3    
        341.8       341.2       340.5       339.7       338.8       337.8       336.7       335.4       334.0       332.4    
        330.5       328.5       326.1       323.4       320.4    
  24    344.6       344.5       344.4       344.3       344.1       343.9       343.6       343.2       342.8       342.3    
        341.8       341.2       340.5       339.7       338.8       337.8       336.7       335.4       334.0       332.4    
        330.5       328.5       326.1       323.4       320.4    
  25    344.6       344.5       344.4       344.3       344.1       343.9       343.6       343.2       342.8       342.3    
        341.8       341.2       340.5       339.7       338.8       337.8       336.7       335.4       334.0       332.4    
        330.5       328.5       326.1       323.4       320.4    
1
              HEAD IN LAYER   3 AT END OF TIME STEP   3 IN STRESS PERIOD    2
  ---------------------------------------------------------------------------

            1           2           3           4           5           6           7           8           9          10
           11          12          13          14          15          16          17          18          19          20
           21          22          23          24          25
 ........................................................................................................................
   1    340.3       340.3       340.3       340.2       340.0       339.9       339.7       339.5       339.2       338.9    
        338.6       338.2       337.8       337.4       336.9       336.3       335.7       335.0       334.2       333.4    
        332.4       331.3       330.1       328.7       327.2    
   2    340.3       340.3       340.3       340.2       340.0       339.9       339.7       339.5       339.2       338.9    
        338.6       338.2       337.8       337.4       336.9       336.3       335.7       335.0       334.2       333.4    
        332.4       331.3       330.1       328.7       327.2    
   3    340.3       340.3       340.2       340.2       340.0       339.9       339.7       339.5       339.2       338.9    
        338.6       338.2       337.8       337.4       336.9       336.3       335.7       335.0       334.2       333.4    
        332.4       331.3       330.1       328.7       327.2    
   4    340.3       340.3       340.2       340.2       340.0       339.9       339.7       339.5       339.2       338.9    
        338.6       338.2       337.8       337.3       336.8       336.3       335.7       335.0       334.2       333.3    
        332.4       331.3       330.1       328.7       327.2    
   5    340.3       340.3       340.2       340.1       340.0       339.9       339.7       339.4       339.2       338.9    
        338.6       338.2       337.8       337.3       336.8       336.3       335.6       335.0       334.2       333.3    
        332.4       331.3       330.1       328.7       327.2    
   6    340.3       340.3       340.2       340.1       340.0       339.8       339.6       339.4       339.2       338.9    
        338.5       338.1       337.7       337.3       336.8       336.2       335.6       334.9       334.2       333.3    
        332.4       331.3       330.1       328.7       327.2    
   7    340.3       340.3       340.2       340.1       340.0       339.8       339.6       339.4       339.1       338.8    
        338.5       338.1       337.7       337.2       336.7       336.2       335.6       334.9       334.2       333.3    
        332.4       331.3       330.1       328.7       327.2    
   8    340.3       340.3       340.2       340.1       340.0       339.8       339.6       339.4       339.1       338.8    
        338.4       338.1       337.6       337.2       336.7       336.2       335.6       334.9       334.1       333.3    
        332.3       331.3       330.1       328.7       327.2    
   9    340.3       340.3       340.2       340.1       340.0       339.8       339.6       339.3       339.1       338.7    
        338.4       338.0       337.6       337.1       336.7       336.1       335.5       334.9       334.1       333.3    
        332.3       331.3       330.1       328.7       327.2    
  10    340.3       340.3       340.2       340.1       340.0       339.8       339.6       339.3       339.0       338.7    
        338.3       337.9       337.5       337.1       336.6       336.1       335.5       334.8       334.1       333.3    
        332.3       331.3       330.0       328.7       327.2    
  11    340.3       340.3       340.2       340.1       339.9       339.8       339.6       339.3       339.0       338.6    
        338.3       337.8       337.4       337.0       336.5       336.0       335.5       334.8       334.1       333.2    
        332.3       331.2       330.0       328.7       327.2    
  12    340.3       340.2       340.2       340.1       339.9       339.8       339.5       339.3       339.0       338.6    
        338.2       337.7       337.2       336.8       336.4       336.0       335.4       334.8       334.1       333.2    
        332.3       331.2       330.0       328.7       327.2    
  13    340.3       340.2       340.2       340.1       339.9       339.8       339.5       339.3       339.0       338.6    
        338.1       337.6       337.0       336.7       336.4       336.0       335.4       334.8       334.1       333.2    
        332.3       331.2       330.0       328.7       327.2    
  14    340.3       340.2       340.2       340.1       339.9       339.8       339.5       339.3       339.0       338.6    
        338.2       337.7       337.2       336.8       336.4       336.0       335.4       334.8       334.1       333.2    
        332.3       331.2       330.0       328.7       327.2    
  15    340.3       340.3       340.2       340.1       339.9       339.8       339.6       339.3       339.0       338.6    
        338.3       337.8       337.4       337.0       336.5       336.0       335.5       334.8       334.1       333.2    
        332.3       331.2       330.0       328.7       327.2    
  16    340.3       340.3       340.2       340.1       340.0       339.8       339.6       339.3       339.0       338.7    
        338.3       337.9       337.5       337.1       336.6       336.1       335.5       334.8       334.1       333.3    
        332.3       331.3       330.0       328.7       327.2    
  17    340.3       340.3       340.2       340.1       340.0       339.8       339.6       339.3       339.1       338.7    
        338.4       338.0       337.6       337.1       336.7       336.1       335.5       334.9       334.1       333.3    
        332.3       331.3       330.1       328.7       327.2    
  18    340.3       340.3       340.2       340.1       340.0       339.8       339.6       339.4       339.1       338.8    
        338.4       338.1       337.6       337.2       336.7       336.2       335.6       334.9       334.1       333.3    
        332.3       331.3       330.1       328.7       327.2    
  19    340.3       340.3       340.2       340.1       340.0       339.8       339.6       339.4       339.1       338.8    
        338.5       338.1       337.7       337.2       336.7       336.2       335.6       334.9       334.2       333.3    
        332.4       331.3       330.1       328.7       327.2    
  20    340.3       340.3       340.2       340.1       340.0       339.8       339.6       339.4       339.2       338.9    
        338.5       338.1       337.7       337.3       336.8       336.2       335.6       334.9       334.2       333.3    
        332.4       331.3       330.1       328.7       327.2    
  21    340.3       340.3       340.2       340.1       340.0       339.9       339.7       339.4       339.2       338.9    
        338.6       338.2       337.8       337.3       336.8       336.3       335.6       335.0       334.2       333.3    
        332.4       331.3       330.1       328.7       327.2    
  22    340.3       340.3       340.2       340.2       340.0       339.9       339.7       339.5       339.2       338.9    
        338.6       338.2       337.8       337.3       336.8       336.3       335.7       335.0       334.2       333.3    
        332.4       331.3       330.1       328.7       327.2    
  23    340.3       340.3       340.2       340.2       340.0       339.9       339.7       339.5       339.2       338.9    
        338.6       338.2       337.8       337.4       336.9       336.3       335.7       335.0       334.2       333.4    
        332.4       331.3       330.1       328.7       327.2    
  24    340.3       340.3       340.3       340.2       340.0       339.9       339.7       339.5       339.2       338.9    
        338.6       338.2       337.8       337.4       336.9       336.3       335.7       335.0       334.2       333.4    
        332.4       331.3       330.1       328.7       327.2    
  25    340.3       340.3       340.3       340.2       340.0       339.9       339.7       339.5       339.2       338.9    
        338.6       338.2       337.8       337.4       336.9       336.3       335.7       335.0       334.2       333.4    
        332.4       331.3       330.1       328.7       327.2    
1
              HEAD IN LAYER   4 AT END OF TIME STEP   3 IN STRESS PERIOD    2
  ---------------------------------------------------------------------------

            1           2           3           4           5           6           7           8           9          10
           11          12          13          14          15          16          17          18          19          20
           21          22          23          24          25
 ........................................................................................................................
   1    336.1       336.1       336.1       336.0       336.0       335.9       335.8       335.7       335.6       335.5    
        335.4       335.3       335.2       335.0       334.9       334.8       334.7       334.6       334.5       334.3    
        334.2       334.2       334.1       334.0       334.0    
   2    336.1       336.1       336.1       336.0       336.0       335.9       335.8       335.7       335.6       335.5    
        335.4       335.3       335.2       335.0       334.9       334.8       334.7       334.6       334.4       334.3    
        334.2       334.2       334.1       334.0       334.0    
   3    336.1       336.1       336.1       336.0       336.0       335.9       335.8       335.7       335.6       335.5    
        335.4       335.3       335.1       335.0       334.9       334.8       334.7       334.5       334.4       334.3    
        334.2       334.1       334.1       334.0       334.0    
   4    336.1       336.1       336.0       336.0       335.9       335.9       335.8       335.7       335.6       335.5    
        335.4       335.2       335.1       335.0       334.9       334.8       334.6       334.5       334.4       334.3    
        334.2       334.1       334.1       334.0       334.0    
   5    336.1       336.1       336.0       336.0       335.9       335.8       335.8       335.7       335.6       335.4    
        335.3       335.2       335.1       335.0       334.8       334.7       334.6       334.5       334.4       334.3    
        334.2       334.1       334.1       334.0       334.0    
   6    336.1       336.1       336.0       336.0       335.9       335.8       335.7       335.6       335.5       335.4    
        335.3       335.1       335.0       334.9       334.8       334.7       334.6       334.5       334.4       334.3    
        334.2       334.1       334.0       334.0       334.0    
   7    336.1       336.0       336.0       336.0       335.9       335.8       335.7       335.6       335.5       335.3    
        335.2       335.1       334.9       334.8       334.7       334.6       334.5       334.4       334.3       334.3    
        334.2       334.1       334.0       334.0       333.9    
   8    336.0       336.0       336.0       335.9       335.9       335.8       335.7       335.5       335.4       335.3    
        335.1       335.0       334.9       334.7       334.6       334.6       334.5       334.4       334.3       334.2    
        334.1       334.1       334.0       334.0       333.9    
   9    336.0       336.0       336.0       335.9       335.8       335.7       335.6       335.5       335.4       335.2    
        335.0       334.9       334.7       334.6       334.6       334.5       334.4       334.3       334.3       334.2    
        334.1       334.1       334.0       334.0       333.9    
  10    336.0       336.0       336.0       335.9       335.8       335.7       335.6       335.5       335.3       335.1    
        334.9       334.7       334.6       334.5       334.4       334.4       334.4       334.3       334.2       334.2    
        334.1       334.0       334.0       333.9       333.9    
  11    336.0       336.0       336.0       335.9       335.8       335.7       335.6       335.4       335.2       335.0    
        334.8       334.5       334.4       334.3       334.3       334.3       334.3       334.3       334.2       334.2    
        334.1       334.0       334.0       333.9       333.9    
  12    336.0       336.0       335.9       335.9       335.8       335.7       335.6       335.4       335.2       334.9    
        334.7       334.3       334.0       334.1       334.2       334.2       334.2       334.2       334.2       334.1    
        334.1       334.0       334.0       333.9       333.9    
  13    336.0       336.0       335.9       335.9       335.8       335.7       335.5       335.4       335.2       334.9    
        334.6       334.1       333.6       333.9       334.1       334.2       334.2       334.2       334.2       334.1    
        334.1       334.0       334.0       333.9       333.9    
  14    336.0       336.0       335.9       335.9       335.8       335.7       335.6       335.4       335.2       334.9    
        334.7       334.3       334.0       334.1       334.2       334.2       334.2       334.2       334.2       334.1    
        334.1       334.0       334.0       333.9       333.9    
  15    336.0       336.0       336.0       335.9       335.8       335.7       335.6       335.4       335.2       335.0    
        334.8       334.5       334.4       334.3       334.3       334.3       334.3       334.3       334.2       334.2    
        334.1       334.0       334.0       333.9       333.9    
  16    336.0       336.0       336.0       335.9       335.8       335.7       335.6       335.5       335.3       335.1    
        334.9       334.7       334.6       334.5       334.4       334.4       334.4       334.3       334.2       334.2    
        334.1       334.0       334.0       333.9       333.9    
  17    336.0       336.0       336.0       335.9       335.8       335.7       335.6       335.5       335.4       335.2    
        335.0       334.9       334.7       334.6       334.6       334.5       334.4       334.3       334.3       334.2    
        334.1       334.1       334.0       334.0       333.9    
  18    336.0       336.0       336.0       335.9       335.9       335.8       335.7       335.5       335.4       335.3    
        335.1       335.0       334.9       334.7       334.6       334.6       334.5       334.4       334.3       334.2    
        334.1       334.1       334.0       334.0       333.9    
  19    336.1       336.0       336.0       336.0       335.9       335.8       335.7       335.6       335.5       335.3    
        335.2       335.1       334.9       334.8       334.7       334.6       334.5       334.4       334.3       334.3    
        334.2       334.1       334.0       334.0       333.9    
  20    336.1       336.1       336.0       336.0       335.9       335.8       335.7       335.6       335.5       335.4    
        335.3       335.1       335.0       334.9       334.8       334.7       334.6       334.5       334.4       334.3    
        334.2       334.1       334.0       334.0       334.0    
  21    336.1       336.1       336.0       336.0       335.9       335.8       335.8       335.7       335.6       335.4    
        335.3       335.2       335.1       335.0       334.8       334.7       334.6       334.5       334.4       334.3    
        334.2       334.1       334.1       334.0       334.0    
  22    336.1       336.1       336.0       336.0       335.9       335.9       335.8       335.7       335.6       335.5    
        335.4       335.2       335.1       335.0       334.9       334.8       334.6       334.5       334.4       334.3    
        334.2       334.1       334.1       334.0       334.0    
  23    336.1       336.1       336.1       336.0       336.0       335.9       335.8       335.7       335.6       335.5    
        335.4       335.3       335.1       335.0       334.9       334.8       334.7       334.5       334.4       334.3    
        334.2       334.1       334.1       334.0       334.0    
  24    336.1       336.1       336.1       336.0       336.0       335.9       335.8       335.7       335.6       335.5    
        335.4       335.3       335.2       335.0       334.9       334.8       334.7       334.6       334.4       334.3    
        334.2       334.2       334.1       334.0       334.0    
  25    336.1       336.1       336.1       336.0       336.0       335.9       335.8       335.7       335.6       335.5    
        335.4       335.3       335.2       335.0       334.9       334.8       334.7       334.6       334.5       334.3    
        334.2       334.2       334.1       334.0       334.0    
1
              HEAD IN LAYER   5 AT END OF TIME STEP   3 IN STRESS PERIOD    2
  ---------------------------------------------------------------------------

            1           2           3           4           5           6           7           8           9          10
           11          12          13          14          15          16          17          18          19          20
           21          22          23          24          25
 ........................................................................................................................
   1    336.1       336.1       336.1       336.0       336.0       335.9       335.8       335.7       335.6       335.5    
        335.4       335.3       335.2       335.0       334.9       334.8       334.7       334.6       334.5       334.3    
        334.3       334.2       334.1       334.0       334.0    
   2    336.1       336.1       336.0       336.0       335.9       335.9       335.8       335.7       335.6       335.5    
        335.4       335.3       335.2       335.0       334.9       334.8       334.7       334.6       334.4       334.3    
        334.2       334.2       334.1       334.0       334.0    
   3    336.1       336.1       336.0       336.0       335.9       335.9       335.8       335.7       335.6       335.5    
        335.4       335.3       335.1       335.0       334.9       334.8       334.7       334.5       334.4       334.3    
        334.2       334.2       334.1       334.0       334.0    
   4    336.1       336.1       336.0       336.0       335.9       335.9       335.8       335.7       335.6       335.5    
        335.3       335.2       335.1       335.0       334.9       334.8       334.6       334.5       334.4       334.3    
        334.2       334.1       334.1       334.0       334.0    
   5    336.1       336.1       336.0       336.0       335.9       335.8       335.8       335.7       335.5       335.4    
        335.3       335.2       335.1       334.9       334.8       334.7       334.6       334.5       334.4       334.3    
        334.2       334.1       334.1       334.0       334.0    
   6    336.1       336.0       336.0       336.0       335.9       335.8       335.7       335.6       335.5       335.4    
        335.3       335.1       335.0       334.9       334.8       334.7       334.6       334.5       334.4       334.3    
        334.2       334.1       334.1       334.0       334.0    
   7    336.0       336.0       336.0       335.9       335.9       335.8       335.7       335.6       335.5       335.3    
        335.2       335.1       334.9       334.8       334.7       334.6       334.5       334.4       334.3       334.3    
        334.2       334.1       334.0       334.0       334.0    
   8    336.0       336.0       336.0       335.9       335.9       335.8       335.7       335.5       335.4       335.3    
        335.1       335.0       334.9       334.7       334.6       334.6       334.5       334.4       334.3       334.2    
        334.2       334.1       334.0       334.0       334.0    
   9    336.0       336.0       336.0       335.9       335.8       335.7       335.6       335.5       335.3       335.2    
        335.0       334.9       334.7       334.6       334.5       334.5       334.4       334.3       334.3       334.2    
        334.1       334.1       334.0       334.0       333.9    
  10    336.0       336.0       336.0       335.9       335.8       335.7       335.6       335.4       335.3       335.1    
        334.9       334.7       334.6       334.5       334.4       334.4       334.3       334.3       334.2       334.2    
        334.1       334.0       334.0       334.0       333.9    
  11    336.0       336.0       335.9       335.9       335.8       335.7       335.6       335.4       335.2       335.0    
        334.8       334.5       334.3       334.3       334.3       334.3       334.3       334.3       334.2       334.2    
        334.1       334.0       334.0       333.9       333.9    
  12    336.0       336.0       335.9       335.9       335.8       335.7       335.5       335.4       335.2       334.9    
        334.6       334.3       333.8       334.0       334.2       334.2       334.2       334.2       334.2       334.1    
        334.1       334.0       334.0       333.9       333.9    
  13    336.0       336.0       335.9       335.9       335.8       335.7       335.5       335.4       335.2       334.9    
        334.5       333.9       332.4       333.7       334.1       334.2       334.2       334.2       334.2       334.1    
        334.1       334.0       334.0       333.9       333.9    
  14    336.0       336.0       335.9       335.9       335.8       335.7       335.5       335.4       335.2       334.9    
        334.6       334.3       333.8       334.0       334.2       334.2       334.2       334.2       334.2       334.1    
        334.1       334.0       334.0       333.9       333.9    
  15    336.0       336.0       335.9       335.9       335.8       335.7       335.6       335.4       335.2       335.0    
        334.8       334.5       334.3       334.3       334.3       334.3       334.3       334.3       334.2       334.2    
        334.1       334.0       334.0       333.9       333.9    
  16    336.0       336.0       336.0       335.9       335.8       335.7       335.6       335.4       335.3       335.1    
        334.9       334.7       334.6       334.5       334.4       334.4       334.3       334.3       334.2       334.2    
        334.1       334.0       334.0       334.0       333.9    
  17    336.0       336.0       336.0       335.9       335.8       335.7       335.6       335.5       335.3       335.2    
        335.0       334.9       334.7       334.6       334.5       334.5       334.4       334.3       334.3       334.2    
        334.1       334.1       334.0       334.0       333.9    
  18    336.0       336.0       336.0       335.9       335.9       335.8       335.7       335.5       335.4       335.3    
        335.1       335.0       334.9       334.7       334.6       334.6       334.5       334.4       334.3       334.2    
        334.2       334.1       334.0       334.0       334.0    
  19    336.0       336.0       336.0       335.9       335.9       335.8       335.7       335.6       335.5       335.3    
        335.2       335.1       334.9       334.8       334.7       334.6       334.5       334.4       334.3       334.3    
        334.2       334.1       334.0       334.0       334.0    
  20    336.1       336.0       336.0       336.0       335.9       335.8       335.7       335.6       335.5       335.4    
        335.3       335.1       335.0       334.9       334.8       334.7       334.6       334.5       334.4       334.3    
        334.2       334.1       334.1       334.0       334.0    
  21    336.1       336.1       336.0       336.0       335.9       335.8       335.8       335.7       335.5       335.4    
        335.3       335.2       335.1       334.9       334.8       334.7       334.6       334.5       334.4       334.3    
        334.2       334.1       334.1       334.0       334.0    
  22    336.1       336.1       336.0       336.0       335.9       335.9       335.8       335.7       335.6       335.5    
        335.3       335.2       335.1       335.0       334.9       334.8       334.6       334.5       334.4       334.3    
        334.2       334.1       334.1       334.0       334.0    
  23    336.1       336.1       336.0       336.0       335.9       335.9       335.8       335.7       335.6       335.5    
        335.4       335.3       335.1       335.0       334.9       334.8       334.7       334.5       334.4       334.3    
        334.2       334.2       334.1       334.0       334.0    
  24    336.1       336.1       336.0       336.0       335.9       335.9       335.8       335.7       335.6       335.5    
        335.4       335.3       335.2       335.0       334.9       334.8       334.7       334.6       334.4       334.3    
        334.2       334.2       334.1       334.0       334.0    
  25    336.1       336.1       336.1       336.0       336.0       335.9       335.8       335.7       335.6       335.5    
        335.4       335.3       335.2       335.0       334.9       334.8       334.7       334.6       334.5       334.3    
        334.3       334.2       334.1       334.0       334.0    

 HEAD WILL BE SAVED ON UNIT   50 AT END OF TIME STEP   3, STRESS PERIOD    2



          TIME SUMMARY AT END OF TIME STEP   3 IN STRESS PERIOD    2
                    SECONDS     MINUTES      HOURS       DAYS        YEARS
                    -----------------------------------------------------------
   TIME STEP LENGTH 1.71534E+07 2.85891E+05  4764.8      198.54     0.54356    
 STRESS PERIOD TIME 3.62128E+07 6.03547E+05  10059.      419.13      1.1475    
         TOTAL TIME 1.73162E+10 2.88604E+08 4.81006E+06 2.00419E+05  548.72    
1
 
 SOLVING FOR HEAD 
     4 CALLS TO PCG ROUTINE FOR TIME STEP   4 IN STRESS PERIOD    2
    36 TOTAL ITERATIONS

 MAXIMUM HEAD CHANGE FOR EACH ITERATION (1 INDICATES THE FIRST INNER ITERATION):

    HEAD CHANGE    HEAD CHANGE    HEAD CHANGE    HEAD CHANGE    HEAD CHANGE 
   LAYER,ROW,COL  LAYER,ROW,COL  LAYER,ROW,COL  LAYER,ROW,COL  LAYER,ROW,COL
 ---------------------------------------------------------------------------
  1  -1.145      0 -0.2337      0  0.6601E-01  0  0.2004      0  0.6957E-01
   (  1, 25,  2)  (  5,  1, 24)  (  5, 24,  1)  (  3,  1, 24)  (  3,  1, 24)
  0 -0.4802E-01  0 -0.3258E-01  0 -0.6898E-02  0  0.7727E-02  0  0.6381E-02
   (  3,  1,  5)  (  5,  1, 24)  (  3,  2,  1)  (  3, 24, 20)  (  3, 25, 21)
  0  0.4284E-02  0 -0.6007E-02  0 -0.5374E-02  0 -0.2013E-02  0 -0.1367E-02
   (  5,  1, 25)  (  3,  2, 24)  (  3,  2, 24)  (  3, 12, 24)  (  3,  1, 24)
  0  0.5931E-03  0 -0.3781E-03  0  0.3562E-03  0  0.2476E-03  0  0.9721E-04
   (  3, 25,  2)  (  3, 25, 23)  (  3,  2, 24)  (  3,  1, 24)  (  3,  1, 24)
  1  0.1024E-01  0  0.4501E-02  0  0.4471E-02  0  0.5390E-02  0  0.1420E-02
   (  2, 17,  1)  (  5,  1, 21)  (  3,  5,  1)  (  3, 19,  1)  (  3, 24,  1)
  0  0.1339E-02  0  0.4564E-03  0 -0.2860E-03  0 -0.3570E-03  0 -0.2188E-03
   (  1, 25, 19)  (  5,  1, 25)  (  3,  7, 24)  (  3,  3, 24)  (  3, 14, 24)
  0 -0.1619E-03  0 -0.1221E-03  0 -0.6368E-04  1  0.1990E-03  0  0.9281E-04
   (  3,  2, 24)  (  3, 25, 24)  (  2, 25, 18)  (  2,  3, 20)  (  1, 25, 21)
  1  0.2880E-04
   (  3,  5, 18)

 MAXIMUM RESIDUAL FOR EACH ITERATION (1 INDICATES THE FIRST INNER ITERATION):

    RESIDUAL       RESIDUAL       RESIDUAL       RESIDUAL       RESIDUAL    
   LAYER,ROW,COL  LAYER,ROW,COL  LAYER,ROW,COL  LAYER,ROW,COL  LAYER,ROW,COL
 ---------------------------------------------------------------------------
  1  -697.3      0  -628.1      0  -536.3      0  -334.4      0  -320.7    
   (  5, 25, 23)  (  2, 25, 24)  (  2, 25, 24)  (  2, 24, 24)  (  2,  2, 24)
  0  -247.6      0  -172.3      0  -144.3      0  -102.9      0  -57.33    
   (  2,  2, 24)  (  2,  2, 24)  (  2,  1, 24)  (  2,  1, 24)  (  2,  1, 24)
  0   33.50      0  -16.77      0  -10.08      0  -7.117      0   5.855    
   (  1,  1, 25)  (  2,  2, 22)  (  2,  2, 23)  (  5, 25, 24)  (  1,  2, 25)
  0   5.085      0   4.090      0   2.839      0   1.641      0   1.063    
   (  1,  1, 25)  (  1,  1, 25)  (  1,  1, 25)  (  1,  1, 25)  (  1,  1, 25)
  1   22.75      0   20.58      0  -13.61      0  -10.78      0  -8.902    
   (  1,  4, 25)  (  1,  4, 25)  (  2,  2, 24)  (  2,  1, 24)  (  2,  1, 24)
  0  -4.292      0  -2.743      0  -2.123      0  -1.492      0  -1.153    
   (  2,  1, 24)  (  1,  2, 20)  (  1,  2, 20)  (  1,  2, 22)  (  1,  2, 22)
  0  0.9563      0  0.7253      0  0.4644      1 -0.4248      0  0.4093    
   (  2,  1, 24)  (  2,  1, 24)  (  2,  1, 24)  (  1,  1, 22)  (  2, 25, 23)
  1 -0.3465    
   (  1,  1, 22)



 OUTPUT CONTROL FOR STRESS PERIOD    2   TIME STEP   4
    SAVE BUDGET
    PRINT HEAD FOR ALL LAYERS
    SAVE HEAD FOR ALL LAYERS
 UBDSV1 SAVING "         STORAGE" ON UNIT  53 AT TIME STEP  4, STRESS PERIOD   2
 UBDSV2 SAVING "   CONSTANT HEAD" ON UNIT  53 AT TIME STEP  4, STRESS PERIOD   2
 UBDSV1 SAVING "FLOW RIGHT FACE " ON UNIT  53 AT TIME STEP  4, STRESS PERIOD   2
 UBDSV1 SAVING "FLOW FRONT FACE " ON UNIT  53 AT TIME STEP  4, STRESS PERIOD   2
 UBDSV1 SAVING "FLOW LOWER FACE " ON UNIT  53 AT TIME STEP  4, STRESS PERIOD   2
 UBDSV4 SAVING "           WELLS" ON UNIT  53 AT TIME STEP  4, STRESS PERIOD   2
 UBDSV4 SAVING "   RIVER LEAKAGE" ON UNIT  53 AT TIME STEP  4, STRESS PERIOD   2
 UBDSV3 SAVING "        RECHARGE" ON UNIT  53 AT TIME STEP  4, STRESS PERIOD   2
1
              HEAD IN LAYER   1 AT END OF TIME STEP   4 IN STRESS PERIOD    2
  ---------------------------------------------------------------------------

            1           2           3           4           5           6           7           8           9          10
           11          12          13          14          15          16          17          18          19          20
           21          22          23          24          25
 ........................................................................................................................
   1    343.4       343.3       343.2       343.1       342.9       342.7       342.4       342.1       341.7       341.2    
        340.7       340.1       339.5       338.7       337.9       336.9       335.8       334.6       333.3       331.8    
        330.0       328.1       325.8       323.2       320.2    
   2    343.4       343.3       343.2       343.1       342.9       342.7       342.4       342.1       341.7       341.2    
        340.7       340.1       339.5       338.7       337.9       336.9       335.8       334.6       333.3       331.8    
        330.0       328.1       325.8       323.2       320.2    
   3    343.4       343.3       343.2       343.1       342.9       342.7       342.4       342.1       341.7       341.2    
        340.7       340.1       339.5       338.7       337.9       336.9       335.8       334.6       333.3       331.8    
        330.0       328.1       325.8       323.2       320.2    
   4    343.4       343.3       343.2       343.1       342.9       342.7       342.4       342.1       341.7       341.2    
        340.7       340.1       339.4       338.7       337.9       336.9       335.8       334.6       333.3       331.8    
        330.0       328.1       325.8       323.2       320.2    
   5    343.3       343.3       343.2       343.1       342.9       342.7       342.4       342.0       341.7       341.2    
        340.7       340.1       339.4       338.7       337.8       336.9       335.8       334.6       333.3       331.7    
        330.0       328.0       325.8       323.2       320.2    
   6    343.3       343.3       343.2       343.1       342.9       342.7       342.4       342.0       341.6       341.2    
        340.7       340.1       339.4       338.7       337.8       336.9       335.8       334.6       333.3       331.7    
        330.0       328.0       325.8       323.2       320.2    
   7    343.3       343.3       343.2       343.1       342.9       342.7       342.4       342.0       341.6       341.2    
        340.7       340.1       339.4       338.7       337.8       336.9       335.8       334.6       333.3       331.7    
        330.0       328.0       325.8       323.2       320.2    
   8    343.3       343.3       343.2       343.1       342.9       342.6       342.4       342.0       341.6       341.2    
        340.7       340.1       339.4       338.7       337.8       336.9       335.8       334.6       333.3       331.7    
        330.0       328.0       325.8       323.2       320.2    
   9    343.3       343.3       343.2       343.1       342.9       342.6       342.4       342.0       341.6       341.2    
        340.6       340.1       339.4       338.6       337.8       336.9       335.8       334.6       333.2       331.7    
        330.0       328.0       325.8       323.2       320.2    
  10    343.3       343.3       343.2       343.1       342.9       342.6       342.3       342.0       341.6       341.2    
        340.6       340.0       339.4       338.6       337.8       336.8       335.8       334.6       333.2       331.7    
        330.0       328.0       325.8       323.2       320.2    
  11    343.3       343.3       343.2       343.1       342.9       342.6       342.3       342.0       341.6       341.1    
        340.6       340.0       339.4       338.6       337.8       336.8       335.8       334.6       333.2       331.7    
        330.0       328.0       325.8       323.2       320.2    
  12    343.3       343.3       343.2       343.1       342.9       342.6       342.3       342.0       341.6       341.1    
        340.6       340.0       339.4       338.6       337.8       336.8       335.8       334.6       333.2       331.7    
        330.0       328.0       325.8       323.2       320.2    
  13    343.3       343.3       343.2       343.1       342.9       342.6       342.3       342.0       341.6       341.1    
        340.6       340.0       339.3       338.6       337.8       336.8       335.8       334.6       333.2       331.7    
        330.0       328.0       325.8       323.2       320.2    
  14    343.3       343.3       343.2       343.1       342.9       342.6       342.3       342.0       341.6       341.1    
        340.6       340.0       339.4       338.6       337.8       336.8       335.8       334.6       333.2       331.7    
        330.0       328.0       325.8       323.2       320.2    
  15    343.3       343.3       343.2       343.1       342.9       342.6       342.3       342.0       341.6       341.1    
        340.6       340.0       339.4       338.6       337.8       336.8       335.8       334.6       333.2       331.7    
        330.0       328.0       325.8       323.2       320.2    
  16    343.3       343.3       343.2       343.1       342.9       342.6       342.3       342.0       341.6       341.2    
        340.6       340.0       339.4       338.6       337.8       336.8       335.8       334.6       333.2       331.7    
        330.0       328.0       325.8       323.2       320.2    
  17    343.3       343.3       343.2       343.1       342.9       342.6       342.4       342.0       341.6       341.2    
        340.6       340.1       339.4       338.6       337.8       336.9       335.8       334.6       333.2       331.7    
        330.0       328.0       325.8       323.2       320.2    
  18    343.3       343.3       343.2       343.1       342.9       342.6       342.4       342.0       341.6       341.2    
        340.7       340.1       339.4       338.7       337.8       336.9       335.8       334.6       333.3       331.7    
        330.0       328.0       325.8       323.2       320.2    
  19    343.3       343.3       343.2       343.1       342.9       342.7       342.4       342.0       341.6       341.2    
        340.7       340.1       339.4       338.7       337.8       336.9       335.8       334.6       333.3       331.7    
        330.0       328.0       325.8       323.2       320.2    
  20    343.3       343.3       343.2       343.1       342.9       342.7       342.4       342.0       341.6       341.2    
        340.7       340.1       339.4       338.7       337.8       336.9       335.8       334.6       333.3       331.7    
        330.0       328.0       325.8       323.2       320.2    
  21    343.3       343.3       343.2       343.1       342.9       342.7       342.4       342.0       341.7       341.2    
        340.7       340.1       339.4       338.7       337.8       336.9       335.8       334.6       333.3       331.7    
        330.0       328.0       325.8       323.2       320.2    
  22    343.4       343.3       343.2       343.1       342.9       342.7       342.4       342.1       341.7       341.2    
        340.7       340.1       339.4       338.7       337.9       336.9       335.8       334.6       333.3       331.8    
        330.0       328.1       325.8       323.2       320.2    
  23    343.4       343.3       343.2       343.1       342.9       342.7       342.4       342.1       341.7       341.2    
        340.7       340.1       339.5       338.7       337.9       336.9       335.8       334.6       333.3       331.8    
        330.0       328.1       325.8       323.2       320.2    
  24    343.4       343.3       343.2       343.1       342.9       342.7       342.4       342.1       341.7       341.2    
        340.7       340.1       339.5       338.7       337.9       336.9       335.8       334.6       333.3       331.8    
        330.0       328.1       325.8       323.2       320.2    
  25    343.4       343.3       343.2       343.1       342.9       342.7       342.4       342.1       341.7       341.2    
        340.7       340.1       339.5       338.7       337.9       336.9       335.8       334.6       333.3       331.8    
        330.0       328.1       325.8       323.2       320.2    
1
              HEAD IN LAYER   2 AT END OF TIME STEP   4 IN STRESS PERIOD    2
  ---------------------------------------------------------------------------

            1           2           3           4           5           6           7           8           9          10
           11          12          13          14          15          16          17          18          19          20
           21          22          23          24          25
 ........................................................................................................................
   1    343.3       343.3       343.2       343.1       342.9       342.6       342.4       342.0       341.6       341.2    
        340.7       340.1       339.4       338.7       337.8       336.9       335.8       334.6       333.3       331.7    
        330.0       328.0       325.8       323.2       320.4    
   2    343.3       343.3       343.2       343.1       342.9       342.6       342.4       342.0       341.6       341.2    
        340.7       340.1       339.4       338.7       337.8       336.9       335.8       334.6       333.3       331.7    
        330.0       328.0       325.8       323.2       320.4    
   3    343.3       343.3       343.2       343.1       342.9       342.6       342.4       342.0       341.6       341.2    
        340.7       340.1       339.4       338.7       337.8       336.9       335.8       334.6       333.3       331.7    
        330.0       328.0       325.8       323.2       320.4    
   4    343.3       343.3       343.2       343.1       342.9       342.6       342.4       342.0       341.6       341.2    
        340.7       340.1       339.4       338.7       337.8       336.9       335.8       334.6       333.3       331.7    
        330.0       328.0       325.8       323.2       320.4    
   5    343.3       343.3       343.2       343.0       342.9       342.6       342.4       342.0       341.6       341.2    
        340.7       340.1       339.4       338.7       337.8       336.9       335.8       334.6       333.3       331.7    
        330.0       328.0       325.8       323.2       320.4    
   6    343.3       343.3       343.2       343.0       342.9       342.6       342.3       342.0       341.6       341.2    
        340.7       340.1       339.4       338.7       337.8       336.9       335.8       334.6       333.3       331.7    
        330.0       328.0       325.8       323.2       320.4    
   7    343.3       343.3       343.2       343.0       342.9       342.6       342.3       342.0       341.6       341.2    
        340.6       340.1       339.4       338.6       337.8       336.9       335.8       334.6       333.2       331.7    
        330.0       328.0       325.8       323.2       320.4    
   8    343.3       343.3       343.2       343.0       342.9       342.6       342.3       342.0       341.6       341.1    
        340.6       340.0       339.4       338.6       337.8       336.8       335.8       334.6       333.2       331.7    
        330.0       328.0       325.8       323.2       320.4    
   9    343.3       343.3       343.2       343.0       342.8       342.6       342.3       342.0       341.6       341.1    
        340.6       340.0       339.4       338.6       337.8       336.8       335.8       334.6       333.2       331.7    
        330.0       328.0       325.8       323.2       320.4    
  10    343.3       343.3       343.2       343.0       342.8       342.6       342.3       342.0       341.6       341.1    
        340.6       340.0       339.4       338.6       337.8       336.8       335.8       334.6       333.2       331.7    
        330.0       328.0       325.8       323.2       320.4    
  11    343.3       343.3       343.2       343.0       342.8       342.6       342.3       342.0       341.6       341.1    
        340.6       340.0       339.3       338.6       337.8       336.8       335.8       334.6       333.2       331.7    
        330.0       328.0       325.8       323.2       320.4    
  12    343.3       343.3       343.2       343.0       342.8       342.6       342.3       342.0       341.6       341.1    
        340.6       340.0       339.3       338.6       337.7       336.8       335.8       334.6       333.2       331.7    
        330.0       328.0       325.8       323.2       320.4    
  13    343.3       343.3       343.2       343.0       342.8       342.6       342.3       342.0       341.6       341.1    
        340.6       340.0       339.3       338.6       337.7       336.8       335.8       334.6       333.2       331.7    
        330.0       328.0       325.8       323.2       320.4    
  14    343.3       343.3       343.2       343.0       342.8       342.6       342.3       342.0       341.6       341.1    
        340.6       340.0       339.3       338.6       337.8       336.8       335.8       334.6       333.2       331.7    
        330.0       328.0       325.8       323.2       320.4    
  15    343.3       343.3       343.2       343.0       342.8       342.6       342.3       342.0       341.6       341.1    
        340.6       340.0       339.3       338.6       337.8       336.8       335.8       334.6       333.2       331.7    
        330.0       328.0       325.8       323.2       320.4    
  16    343.3       343.3       343.2       343.0       342.8       342.6       342.3       342.0       341.6       341.1    
        340.6       340.0       339.4       338.6       337.8       336.8       335.8       334.6       333.2       331.7    
        330.0       328.0       325.8       323.2       320.4    
  17    343.3       343.3       343.2       343.0       342.8       342.6       342.3       342.0       341.6       341.1    
        340.6       340.0       339.4       338.6       337.8       336.8       335.8       334.6       333.2       331.7    
        330.0       328.0       325.8       323.2       320.4    
  18    343.3       343.3       343.2       343.0       342.9       342.6       342.3       342.0       341.6       341.1    
        340.6       340.0       339.4       338.6       337.8       336.8       335.8       334.6       333.2       331.7    
        330.0       328.0       325.8       323.2       320.4    
  19    343.3       343.3       343.2       343.0       342.9       342.6       342.3       342.0       341.6       341.2    
        340.6       340.1       339.4       338.6       337.8       336.9       335.8       334.6       333.2       331.7    
        330.0       328.0       325.8       323.2       320.4    
  20    343.3       343.3       343.2       343.0       342.9       342.6       342.3       342.0       341.6       341.2    
        340.7       340.1       339.4       338.7       337.8       336.9       335.8       334.6       333.3       331.7    
        330.0       328.0       325.8       323.2       320.4    
  21    343.3       343.3       343.2       343.0       342.9       342.6       342.4       342.0       341.6       341.2    
        340.7       340.1       339.4       338.7       337.8       336.9       335.8       334.6       333.3       331.7    
        330.0       328.0       325.8       323.2       320.4    
  22    343.3       343.3       343.2       343.1       342.9       342.6       342.4       342.0       341.6       341.2    
        340.7       340.1       339.4       338.7       337.8       336.9       335.8       334.6       333.3       331.7    
        330.0       328.0       325.8       323.2       320.4    
  23    343.3       343.3       343.2       343.1       342.9       342.6       342.4       342.0       341.6       341.2    
        340.7       340.1       339.4       338.7       337.8       336.9       335.8       334.6       333.3       331.7    
        330.0       328.0       325.8       323.2       320.4    
  24    343.3       343.3       343.2       343.1       342.9       342.6       342.4       342.0       341.6       341.2    
        340.7       340.1       339.4       338.7       337.8       336.9       335.8       334.6       333.3       331.7    
        330.0       328.0       325.8       323.2       320.4    
  25    343.3       343.3       343.2       343.1       342.9       342.6       342.4       342.0       341.6       341.2    
        340.7       340.1       339.4       338.7       337.8       336.9       335.8       334.6       333.3       331.7    
        330.0       328.0       325.8       323.2       320.4    
1
              HEAD IN LAYER   3 AT END OF TIME STEP   4 IN STRESS PERIOD    2
  ---------------------------------------------------------------------------

            1           2           3           4           5           6           7           8           9          10
           11          12          13          14          15          16          17          18          19          20
           21          22          23          24          25
 ........................................................................................................................
   1    339.2       339.2       339.1       339.0       338.9       338.8       338.6       338.4       338.1       337.9    
        337.6       337.2       336.8       336.4       335.9       335.4       334.8       334.1       333.4       332.6    
        331.7       330.6       329.5       328.2       326.8    
   2    339.2       339.2       339.1       339.0       338.9       338.8       338.6       338.4       338.1       337.9    
        337.5       337.2       336.8       336.4       335.9       335.4       334.8       334.1       333.4       332.6    
        331.7       330.6       329.5       328.2       326.8    
   3    339.2       339.2       339.1       339.0       338.9       338.8       338.6       338.4       338.1       337.8    
        337.5       337.2       336.8       336.4       335.9       335.4       334.8       334.1       333.4       332.6    
        331.7       330.6       329.5       328.2       326.8    
   4    339.2       339.2       339.1       339.0       338.9       338.7       338.6       338.4       338.1       337.8    
        337.5       337.2       336.8       336.3       335.9       335.3       334.8       334.1       333.4       332.6    
        331.7       330.6       329.5       328.2       326.7    
   5    339.2       339.2       339.1       339.0       338.9       338.7       338.6       338.3       338.1       337.8    
        337.5       337.1       336.8       336.3       335.8       335.3       334.7       334.1       333.4       332.6    
        331.6       330.6       329.5       328.2       326.7    
   6    339.2       339.2       339.1       339.0       338.9       338.7       338.5       338.3       338.1       337.8    
        337.5       337.1       336.7       336.3       335.8       335.3       334.7       334.1       333.3       332.5    
        331.6       330.6       329.5       328.2       326.7    
   7    339.2       339.1       339.1       339.0       338.9       338.7       338.5       338.3       338.0       337.8    
        337.4       337.1       336.7       336.3       335.8       335.3       334.7       334.0       333.3       332.5    
        331.6       330.6       329.5       328.2       326.7    
   8    339.2       339.1       339.1       339.0       338.9       338.7       338.5       338.3       338.0       337.7    
        337.4       337.0       336.6       336.2       335.7       335.2       334.7       334.0       333.3       332.5    
        331.6       330.6       329.4       328.1       326.7    
   9    339.2       339.1       339.1       339.0       338.8       338.7       338.5       338.2       338.0       337.7    
        337.3       337.0       336.6       336.1       335.7       335.2       334.6       334.0       333.3       332.5    
        331.6       330.6       329.4       328.1       326.7    
  10    339.2       339.1       339.1       339.0       338.8       338.7       338.5       338.2       337.9       337.6    
        337.3       336.9       336.5       336.1       335.6       335.1       334.6       334.0       333.3       332.5    
        331.6       330.6       329.4       328.1       326.7    
  11    339.1       339.1       339.0       338.9       338.8       338.6       338.4       338.2       337.9       337.6    
        337.2       336.8       336.4       336.0       335.6       335.1       334.6       333.9       333.2       332.5    
        331.6       330.6       329.4       328.1       326.7    
  12    339.1       339.1       339.0       338.9       338.8       338.6       338.4       338.2       337.9       337.5    
        337.1       336.7       336.2       335.8       335.5       335.0       334.5       333.9       333.2       332.5    
        331.6       330.6       329.4       328.1       326.7    
  13    339.1       339.1       339.0       338.9       338.8       338.6       338.4       338.2       337.9       337.5    
        337.1       336.6       336.0       335.7       335.4       335.0       334.5       333.9       333.2       332.4    
        331.6       330.6       329.4       328.1       326.7    
  14    339.1       339.1       339.0       338.9       338.8       338.6       338.4       338.2       337.9       337.5    
        337.1       336.7       336.2       335.8       335.5       335.0       334.5       333.9       333.2       332.5    
        331.6       330.6       329.4       328.1       326.7    
  15    339.1       339.1       339.0       339.0       338.8       338.6       338.4       338.2       337.9       337.6    
        337.2       336.8       336.4       336.0       335.6       335.1       334.6       333.9       333.2       332.5    
        331.6       330.6       329.4       328.1       326.7    
  16    339.2       339.1       339.1       339.0       338.8       338.7       338.5       338.2       337.9       337.6    
        337.3       336.9       336.5       336.1       335.6       335.1       334.6       334.0       333.3       332.5    
        331.6       330.6       329.4       328.1       326.7    
  17    339.2       339.1       339.1       339.0       338.8       338.7       338.5       338.2       338.0       337.7    
        337.3       337.0       336.6       336.1       335.7       335.2       334.6       334.0       333.3       332.5    
        331.6       330.6       329.4       328.1       326.7    
  18    339.2       339.1       339.1       339.0       338.9       338.7       338.5       338.3       338.0       337.7    
        337.4       337.0       336.6       336.2       335.7       335.2       334.7       334.0       333.3       332.5    
        331.6       330.6       329.4       328.1       326.7    
  19    339.2       339.1       339.1       339.0       338.9       338.7       338.5       338.3       338.0       337.8    
        337.4       337.1       336.7       336.3       335.8       335.3       334.7       334.0       333.3       332.5    
        331.6       330.6       329.5       328.2       326.7    
  20    339.2       339.2       339.1       339.0       338.9       338.7       338.5       338.3       338.1       337.8    
        337.5       337.1       336.7       336.3       335.8       335.3       334.7       334.1       333.3       332.5    
        331.6       330.6       329.5       328.2       326.7    
  21    339.2       339.2       339.1       339.0       338.9       338.7       338.6       338.3       338.1       337.8    
        337.5       337.1       336.8       336.3       335.8       335.3       334.7       334.1       333.4       332.6    
        331.6       330.6       329.5       328.2       326.7    
  22    339.2       339.2       339.1       339.0       338.9       338.7       338.6       338.4       338.1       337.8    
        337.5       337.2       336.8       336.3       335.9       335.3       334.8       334.1       333.4       332.6    
        331.7       330.6       329.5       328.2       326.7    
  23    339.2       339.2       339.1       339.0       338.9       338.8       338.6       338.4       338.1       337.8    
        337.5       337.2       336.8       336.4       335.9       335.4       334.8       334.1       333.4       332.6    
        331.7       330.6       329.5       328.2       326.8    
  24    339.2       339.2       339.1       339.0       338.9       338.8       338.6       338.4       338.1       337.9    
        337.5       337.2       336.8       336.4       335.9       335.4       334.8       334.1       333.4       332.6    
        331.7       330.6       329.5       328.2       326.8    
  25    339.2       339.2       339.1       339.0       338.9       338.8       338.6       338.4       338.1       337.9    
        337.6       337.2       336.8       336.4       335.9       335.4       334.8       334.1       333.4       332.6    
        331.7       330.6       329.5       328.2       326.8    
1
              HEAD IN LAYER   4 AT END OF TIME STEP   4 IN STRESS PERIOD    2
  ---------------------------------------------------------------------------

            1           2           3           4           5           6           7           8           9          10
           11          12          13          14          15          16          17          18          19          20
           21          22          23          24          25
 ........................................................................................................................
   1    335.1       335.1       335.0       335.0       334.9       334.9       334.8       334.7       334.6       334.5    
        334.4       334.3       334.2       334.1       334.0       333.8       333.7       333.6       333.5       333.4    
        333.3       333.2       333.2       333.1       333.1    
   2    335.1       335.1       335.0       335.0       334.9       334.9       334.8       334.7       334.6       334.5    
        334.4       334.3       334.2       334.1       333.9       333.8       333.7       333.6       333.5       333.4    
        333.3       333.2       333.2       333.1       333.1    
   3    335.1       335.1       335.0       335.0       334.9       334.9       334.8       334.7       334.6       334.5    
        334.4       334.3       334.2       334.0       333.9       333.8       333.7       333.6       333.5       333.4    
        333.3       333.2       333.2       333.1       333.1    
   4    335.1       335.1       335.0       335.0       334.9       334.9       334.8       334.7       334.6       334.5    
        334.4       334.2       334.1       334.0       333.9       333.8       333.7       333.6       333.5       333.4    
        333.3       333.2       333.1       333.1       333.1    
   5    335.1       335.0       335.0       335.0       334.9       334.8       334.7       334.7       334.5       334.4    
        334.3       334.2       334.1       334.0       333.9       333.8       333.7       333.6       333.5       333.4    
        333.3       333.2       333.1       333.1       333.1    
   6    335.0       335.0       335.0       334.9       334.9       334.8       334.7       334.6       334.5       334.4    
        334.3       334.2       334.0       333.9       333.8       333.7       333.6       333.5       333.4       333.3    
        333.3       333.2       333.1       333.1       333.0    
   7    335.0       335.0       335.0       334.9       334.9       334.8       334.7       334.6       334.5       334.3    
        334.2       334.1       334.0       333.9       333.8       333.7       333.6       333.5       333.4       333.3    
        333.2       333.2       333.1       333.1       333.0    
   8    335.0       335.0       335.0       334.9       334.8       334.8       334.7       334.5       334.4       334.3    
        334.1       334.0       333.9       333.8       333.7       333.6       333.5       333.4       333.4       333.3    
        333.2       333.1       333.1       333.0       333.0    
   9    335.0       335.0       335.0       334.9       334.8       334.7       334.6       334.5       334.4       334.2    
        334.0       333.9       333.8       333.7       333.6       333.5       333.5       333.4       333.3       333.3    
        333.2       333.1       333.1       333.0       333.0    
  10    335.0       335.0       334.9       334.9       334.8       334.7       334.6       334.4       334.3       334.1    
        333.9       333.7       333.6       333.5       333.5       333.4       333.4       333.3       333.3       333.2    
        333.2       333.1       333.1       333.0       333.0    
  11    335.0       335.0       334.9       334.9       334.8       334.7       334.6       334.4       334.2       334.0    
        333.8       333.6       333.4       333.3       333.3       333.3       333.3       333.3       333.3       333.2    
        333.2       333.1       333.1       333.0       333.0    
  12    335.0       335.0       334.9       334.9       334.8       334.7       334.5       334.4       334.2       334.0    
        333.7       333.3       333.0       333.1       333.2       333.3       333.3       333.3       333.2       333.2    
        333.1       333.1       333.0       333.0       333.0    
  13    335.0       335.0       334.9       334.9       334.8       334.7       334.5       334.4       334.2       333.9    
        333.6       333.1       332.6       332.9       333.1       333.2       333.3       333.3       333.2       333.2    
        333.1       333.1       333.0       333.0       333.0    
  14    335.0       335.0       334.9       334.9       334.8       334.7       334.5       334.4       334.2       334.0    
        333.7       333.3       333.0       333.1       333.2       333.3       333.3       333.3       333.2       333.2    
        333.1       333.1       333.0       333.0       333.0    
  15    335.0       335.0       334.9       334.9       334.8       334.7       334.6       334.4       334.2       334.0    
        333.8       333.6       333.4       333.3       333.3       333.3       333.3       333.3       333.3       333.2    
        333.2       333.1       333.1       333.0       333.0    
  16    335.0       335.0       334.9       334.9       334.8       334.7       334.6       334.4       334.3       334.1    
        333.9       333.7       333.6       333.5       333.5       333.4       333.4       333.3       333.3       333.2    
        333.2       333.1       333.1       333.0       333.0    
  17    335.0       335.0       335.0       334.9       334.8       334.7       334.6       334.5       334.4       334.2    
        334.0       333.9       333.8       333.7       333.6       333.5       333.5       333.4       333.3       333.3    
        333.2       333.1       333.1       333.0       333.0    
  18    335.0       335.0       335.0       334.9       334.8       334.8       334.7       334.5       334.4       334.3    
        334.1       334.0       333.9       333.8       333.7       333.6       333.5       333.4       333.4       333.3    
        333.2       333.1       333.1       333.0       333.0    
  19    335.0       335.0       335.0       334.9       334.9       334.8       334.7       334.6       334.5       334.3    
        334.2       334.1       334.0       333.9       333.8       333.7       333.6       333.5       333.4       333.3    
        333.2       333.2       333.1       333.1       333.0    
  20    335.0       335.0       335.0       334.9       334.9       334.8       334.7       334.6       334.5       334.4    
        334.3       334.2       334.0       333.9       333.8       333.7       333.6       333.5       333.4       333.3    
        333.3       333.2       333.1       333.1       333.0    
  21    335.1       335.0       335.0       335.0       334.9       334.8       334.7       334.7       334.5       334.4    
        334.3       334.2       334.1       334.0       333.9       333.8       333.7       333.6       333.5       333.4    
        333.3       333.2       333.1       333.1       333.1    
  22    335.1       335.1       335.0       335.0       334.9       334.9       334.8       334.7       334.6       334.5    
        334.4       334.2       334.1       334.0       333.9       333.8       333.7       333.6       333.5       333.4    
        333.3       333.2       333.1       333.1       333.1    
  23    335.1       335.1       335.0       335.0       334.9       334.9       334.8       334.7       334.6       334.5    
        334.4       334.3       334.2       334.0       333.9       333.8       333.7       333.6       333.5       333.4    
        333.3       333.2       333.2       333.1       333.1    
  24    335.1       335.1       335.0       335.0       334.9       334.9       334.8       334.7       334.6       334.5    
        334.4       334.3       334.2       334.1       333.9       333.8       333.7       333.6       333.5       333.4    
        333.3       333.2       333.2       333.1       333.1    
  25    335.1       335.1       335.0       335.0       334.9       334.9       334.8       334.7       334.6       334.5    
        334.4       334.3       334.2       334.1       334.0       333.8       333.7       333.6       333.5       333.4    
        333.3       333.2       333.2       333.1       333.1    
1
              HEAD IN LAYER   5 AT END OF TIME STEP   4 IN STRESS PERIOD    2
  ---------------------------------------------------------------------------

            1           2           3           4           5           6           7           8           9          10
           11          12          13          14          15          16          17          18          19          20
           21          22          23          24          25
 ........................................................................................................................
   1    335.1       335.1       335.0       335.0       334.9       334.9       334.8       334.7       334.6       334.5    
        334.4       334.3       334.2       334.1       334.0       333.8       333.7       333.6       333.5       333.4    
        333.3       333.2       333.2       333.1       333.1    
   2    335.1       335.1       335.0       335.0       334.9       334.9       334.8       334.7       334.6       334.5    
        334.4       334.3       334.2       334.1       333.9       333.8       333.7       333.6       333.5       333.4    
        333.3       333.2       333.2       333.1       333.1    
   3    335.1       335.0       335.0       335.0       334.9       334.9       334.8       334.7       334.6       334.5    
        334.4       334.3       334.2       334.0       333.9       333.8       333.7       333.6       333.5       333.4    
        333.3       333.2       333.2       333.1       333.1    
   4    335.1       335.0       335.0       335.0       334.9       334.8       334.8       334.7       334.6       334.5    
        334.4       334.2       334.1       334.0       333.9       333.8       333.7       333.6       333.5       333.4    
        333.3       333.2       333.2       333.1       333.1    
   5    335.0       335.0       335.0       335.0       334.9       334.8       334.7       334.6       334.5       334.4    
        334.3       334.2       334.1       334.0       333.9       333.8       333.7       333.6       333.5       333.4    
        333.3       333.2       333.1       333.1       333.1    
   6    335.0       335.0       335.0       334.9       334.9       334.8       334.7       334.6       334.5       334.4    
        334.3       334.1       334.0       333.9       333.8       333.7       333.6       333.5       333.4       333.3    
        333.3       333.2       333.1       333.1       333.1    
   7    335.0       335.0       335.0       334.9       334.9       334.8       334.7       334.6       334.5       334.3    
        334.2       334.1       334.0       333.9       333.8       333.7       333.6       333.5       333.4       333.3    
        333.2       333.2       333.1       333.1       333.0    
   8    335.0       335.0       335.0       334.9       334.8       334.7       334.6       334.5       334.4       334.3    
        334.1       334.0       333.9       333.8       333.7       333.6       333.5       333.4       333.4       333.3    
        333.2       333.2       333.1       333.1       333.0    
   9    335.0       335.0       334.9       334.9       334.8       334.7       334.6       334.5       334.3       334.2    
        334.0       333.9       333.8       333.7       333.6       333.5       333.5       333.4       333.3       333.3    
        333.2       333.1       333.1       333.0       333.0    
  10    335.0       335.0       334.9       334.9       334.8       334.7       334.6       334.4       334.3       334.1    
        333.9       333.7       333.6       333.5       333.5       333.4       333.4       333.3       333.3       333.2    
        333.2       333.1       333.1       333.0       333.0    
  11    335.0       335.0       334.9       334.9       334.8       334.7       334.5       334.4       334.2       334.0    
        333.8       333.5       333.3       333.3       333.3       333.3       333.3       333.3       333.3       333.2    
        333.2       333.1       333.1       333.0       333.0    
  12    335.0       335.0       334.9       334.9       334.8       334.7       334.5       334.4       334.2       333.9    
        333.6       333.3       332.8       333.0       333.2       333.3       333.3       333.3       333.2       333.2    
        333.2       333.1       333.1       333.0       333.0    
  13    335.0       335.0       334.9       334.8       334.8       334.7       334.5       334.4       334.2       333.9    
        333.5       333.0       331.4       332.7       333.1       333.2       333.3       333.3       333.2       333.2    
        333.1       333.1       333.1       333.0       333.0    
  14    335.0       335.0       334.9       334.9       334.8       334.7       334.5       334.4       334.2       333.9    
        333.6       333.3       332.8       333.0       333.2       333.3       333.3       333.3       333.2       333.2    
        333.2       333.1       333.1       333.0       333.0    
  15    335.0       335.0       334.9       334.9       334.8       334.7       334.5       334.4       334.2       334.0    
        333.8       333.5       333.3       333.3       333.3       333.3       333.3       333.3       333.3       333.2    
        333.2       333.1       333.1       333.0       333.0    
  16    335.0       335.0       334.9       334.9       334.8       334.7       334.6       334.4       334.3       334.1    
        333.9       333.7       333.6       333.5       333.5       333.4       333.4       333.3       333.3       333.2    
        333.2       333.1       333.1       333.0       333.0    
  17    335.0       335.0       334.9       334.9       334.8       334.7       334.6       334.5       334.3       334.2    
        334.0       333.9       333.8       333.7       333.6       333.5       333.5       333.4       333.3       333.3    
        333.2       333.1       333.1       333.0       333.0    
  18    335.0       335.0       335.0       334.9       334.8       334.7       334.6       334.5       334.4       334.3    
        334.1       334.0       333.9       333.8       333.7       333.6       333.5       333.4       333.4       333.3    
        333.2       333.2       333.1       333.1       333.0    
  19    335.0       335.0       335.0       334.9       334.9       334.8       334.7       334.6       334.5       334.3    
        334.2       334.1       334.0       333.9       333.8       333.7       333.6       333.5       333.4       333.3    
        333.2       333.2       333.1       333.1       333.0    
  20    335.0       335.0       335.0       334.9       334.9       334.8       334.7       334.6       334.5       334.4    
        334.3       334.1       334.0       333.9       333.8       333.7       333.6       333.5       333.4       333.3    
        333.3       333.2       333.1       333.1       333.1    
  21    335.0       335.0       335.0       335.0       334.9       334.8       334.7       334.6       334.5       334.4    
        334.3       334.2       334.1       334.0       333.9       333.8       333.7       333.6       333.5       333.4    
        333.3       333.2       333.1       333.1       333.1    
  22    335.1       335.0       335.0       335.0       334.9       334.8       334.8       334.7       334.6       334.5    
        334.4       334.2       334.1       334.0       333.9       333.8       333.7       333.6       333.5       333.4    
        333.3       333.2       333.2       333.1       333.1    
  23    335.1       335.0       335.0       335.0       334.9       334.9       334.8       334.7       334.6       334.5    
        334.4       334.3       334.2       334.0       333.9       333.8       333.7       333.6       333.5       333.4    
        333.3       333.2       333.2       333.1       333.1    
  24    335.1       335.1       335.0       335.0       334.9       334.9       334.8       334.7       334.6       334.5    
        334.4       334.3       334.2       334.1       333.9       333.8       333.7       333.6       333.5       333.4    
        333.3       333.2       333.2       333.1       333.1    
  25    335.1       335.1       335.0       335.0       334.9       334.9       334.8       334.7       334.6       334.5    
        334.4       334.3       334.2       334.1       334.0       333.8       333.7       333.6       333.5       333.4    
        333.3       333.2       333.2       333.1       333.1    

 HEAD WILL BE SAVED ON UNIT   50 AT END OF TIME STEP   4, STRESS PERIOD    2



          TIME SUMMARY AT END OF TIME STEP   4 IN STRESS PERIOD    2
                    SECONDS     MINUTES      HOURS       DAYS        YEARS
                    -----------------------------------------------------------
   TIME STEP LENGTH 2.57302E+07 4.28836E+05  7147.3      297.80     0.81534    
 STRESS PERIOD TIME 6.19430E+07 1.03238E+06  17206.      716.93      1.9629    
         TOTAL TIME 1.73419E+10 2.89032E+08 4.81721E+06 2.00717E+05  549.53    
1
 
 SOLVING FOR HEAD 
     4 CALLS TO PCG ROUTINE FOR TIME STEP   5 IN STRESS PERIOD    2
    37 TOTAL ITERATIONS

 MAXIMUM HEAD CHANGE FOR EACH ITERATION (1 INDICATES THE FIRST INNER ITERATION):

    HEAD CHANGE    HEAD CHANGE    HEAD CHANGE    HEAD CHANGE    HEAD CHANGE 
   LAYER,ROW,COL  LAYER,ROW,COL  LAYER,ROW,COL  LAYER,ROW,COL  LAYER,ROW,COL
 ---------------------------------------------------------------------------
  1  -1.170      0 -0.2647      0 -0.8234E-01  0 -0.1467      0  0.9238E-01
   (  2, 25,  3)  (  5,  1, 22)  (  5,  1, 25)  (  2,  1, 19)  (  3,  1, 24)
  0  0.6023E-01  0  0.3845E-01  0  0.1080E-01  0  0.1039E-01  0  0.7634E-02
   (  3,  2, 24)  (  3, 24, 24)  (  3,  6, 24)  (  3, 25, 21)  (  2,  1, 23)
  0  0.6175E-02  0 -0.6765E-02  0 -0.5062E-02  0 -0.3788E-02  0 -0.1832E-02
   (  3, 24,  1)  (  3,  3, 24)  (  3,  2, 24)  (  3,  2, 24)  (  3,  1, 24)
  0 -0.7513E-03  0 -0.4561E-03  0  0.4270E-03  0  0.2860E-03  0  0.1076E-03
   (  1,  1, 21)  (  3, 25, 23)  (  3,  2, 24)  (  3,  2, 24)  (  3,  1, 24)
  1  0.1295E-01  0  0.4642E-02  0  0.4660E-02  0  0.7304E-02  0  0.1485E-02
   (  2, 21,  2)  (  5,  1, 20)  (  5,  1, 24)  (  3, 18,  1)  (  3, 24,  1)
  0  0.1636E-02  0  0.4851E-03  0 -0.4972E-03  0 -0.3945E-03  0 -0.2858E-03
   (  1, 25, 18)  (  5,  1, 25)  (  3,  4, 24)  (  3, 25, 24)  (  3, 14, 24)
  0 -0.2540E-03  0 -0.1423E-03  0 -0.9637E-04  1  0.2039E-03  0  0.1116E-03
   (  3,  2, 24)  (  3, 25, 24)  (  2, 25, 17)  (  1,  4, 20)  (  1, 25, 21)
  0  0.3321E-04  1 -0.3225E-04
   (  1,  1, 21)  (  3, 24,  1)

 MAXIMUM RESIDUAL FOR EACH ITERATION (1 INDICATES THE FIRST INNER ITERATION):

    RESIDUAL       RESIDUAL       RESIDUAL       RESIDUAL       RESIDUAL    
   LAYER,ROW,COL  LAYER,ROW,COL  LAYER,ROW,COL  LAYER,ROW,COL  LAYER,ROW,COL
 ---------------------------------------------------------------------------
  1  -747.5      0  -632.3      0  -559.1      0  -374.3      0  -334.5    
   (  5, 25, 23)  (  2, 25, 24)  (  2, 25, 24)  (  2, 24, 24)  (  2,  3, 24)
  0  -278.6      0  -210.5      0  -166.8      0  -125.5      0  -76.77    
   (  2,  2, 24)  (  2,  2, 24)  (  2,  2, 24)  (  2,  1, 24)  (  2,  1, 24)
  0   41.42      0  -22.89      0  -15.51      0  -10.10      0   6.516    
   (  1,  1, 25)  (  2,  2, 22)  (  2,  2, 22)  (  2,  2, 23)  (  1,  2, 25)
  0   5.623      0   4.811      0   3.464      0   2.135      0   1.536    
   (  1,  1, 25)  (  1,  1, 25)  (  1,  1, 25)  (  1,  1, 25)  (  1,  1, 25)
  1   21.89      0   20.78      0   15.26      0  -10.93      0  -9.242    
   (  1,  5, 25)  (  1,  5, 25)  (  1,  2, 25)  (  2,  1, 24)  (  2,  1, 24)
  0  -5.130      0  -3.397      0  -2.621      0   2.101      0   1.686    
   (  2,  1, 24)  (  1,  2, 19)  (  1,  2, 20)  (  2,  2, 24)  (  2,  2, 24)
  0   1.389      0   1.082      0  0.6763      1 -0.5174      0 -0.4748    
   (  2,  1, 24)  (  2,  1, 24)  (  2,  1, 24)  (  1,  1, 22)  (  1,  1, 22)
  0 -0.4237      1 -0.3992    
   (  1,  1, 22)  (  1,  1, 23)



 OUTPUT CONTROL FOR STRESS PERIOD    2   TIME STEP   5
    SAVE BUDGET
    PRINT HEAD FOR ALL LAYERS
    SAVE HEAD FOR ALL LAYERS
 UBDSV1 SAVING "         STORAGE" ON UNIT  53 AT TIME STEP  5, STRESS PERIOD   2
 UBDSV2 SAVING "   CONSTANT HEAD" ON UNIT  53 AT TIME STEP  5, STRESS PERIOD   2
 UBDSV1 SAVING "FLOW RIGHT FACE " ON UNIT  53 AT TIME STEP  5, STRESS PERIOD   2
 UBDSV1 SAVING "FLOW FRONT FACE " ON UNIT  53 AT TIME STEP  5, STRESS PERIOD   2
 UBDSV1 SAVING "FLOW LOWER FACE " ON UNIT  53 AT TIME STEP  5, STRESS PERIOD   2
 UBDSV4 SAVING "           WELLS" ON UNIT  53 AT TIME STEP  5, STRESS PERIOD   2
 UBDSV4 SAVING "   RIVER LEAKAGE" ON UNIT  53 AT TIME STEP  5, STRESS PERIOD   2
 UBDSV3 SAVING "        RECHARGE" ON UNIT  53 AT TIME STEP  5, STRESS PERIOD   2
1
              HEAD IN LAYER   1 AT END OF TIME STEP   5 IN STRESS PERIOD    2
  ---------------------------------------------------------------------------

            1           2           3           4           5           6           7           8           9          10
           11          12          13          14          15          16          17          18          19          20
           21          22          23          24          25
 ........................................................................................................................
   1    342.0       342.0       341.9       341.8       341.6       341.4       341.1       340.8       340.5       340.0    
        339.6       339.0       338.4       337.7       336.9       336.0       335.0       333.9       332.6       331.1    
        329.5       327.6       325.5       323.1       320.2    
   2    342.0       342.0       341.9       341.8       341.6       341.4       341.1       340.8       340.5       340.0    
        339.6       339.0       338.4       337.7       336.9       336.0       335.0       333.9       332.6       331.1    
        329.5       327.6       325.5       323.1       320.2    
   3    342.0       342.0       341.9       341.8       341.6       341.4       341.1       340.8       340.5       340.0    
        339.6       339.0       338.4       337.7       336.9       336.0       335.0       333.8       332.6       331.1    
        329.5       327.6       325.5       323.1       320.2    
   4    342.0       342.0       341.9       341.8       341.6       341.4       341.1       340.8       340.5       340.0    
        339.5       339.0       338.4       337.7       336.9       336.0       335.0       333.8       332.6       331.1    
        329.5       327.6       325.5       323.1       320.2    
   5    342.0       342.0       341.9       341.8       341.6       341.4       341.1       340.8       340.4       340.0    
        339.5       339.0       338.4       337.7       336.9       336.0       335.0       333.8       332.6       331.1    
        329.5       327.6       325.5       323.1       320.2    
   6    342.0       342.0       341.9       341.8       341.6       341.4       341.1       340.8       340.4       340.0    
        339.5       339.0       338.4       337.7       336.9       336.0       335.0       333.8       332.6       331.1    
        329.5       327.6       325.5       323.1       320.2    
   7    342.0       342.0       341.9       341.8       341.6       341.4       341.1       340.8       340.4       340.0    
        339.5       339.0       338.3       337.6       336.8       336.0       335.0       333.8       332.5       331.1    
        329.5       327.6       325.5       323.1       320.2    
   8    342.0       342.0       341.9       341.8       341.6       341.4       341.1       340.8       340.4       340.0    
        339.5       339.0       338.3       337.6       336.8       335.9       334.9       333.8       332.5       331.1    
        329.5       327.6       325.5       323.1       320.2    
   9    342.0       342.0       341.9       341.8       341.6       341.4       341.1       340.8       340.4       340.0    
        339.5       338.9       338.3       337.6       336.8       335.9       334.9       333.8       332.5       331.1    
        329.5       327.6       325.5       323.1       320.2    
  10    342.0       342.0       341.9       341.8       341.6       341.4       341.1       340.8       340.4       340.0    
        339.5       338.9       338.3       337.6       336.8       335.9       334.9       333.8       332.5       331.1    
        329.5       327.6       325.5       323.1       320.2    
  11    342.0       342.0       341.9       341.8       341.6       341.4       341.1       340.8       340.4       340.0    
        339.5       338.9       338.3       337.6       336.8       335.9       334.9       333.8       332.5       331.1    
        329.5       327.6       325.5       323.1       320.2    
  12    342.0       342.0       341.9       341.8       341.6       341.4       341.1       340.8       340.4       340.0    
        339.5       338.9       338.3       337.6       336.8       335.9       334.9       333.8       332.5       331.1    
        329.5       327.6       325.5       323.1       320.2    
  13    342.0       342.0       341.9       341.8       341.6       341.4       341.1       340.8       340.4       340.0    
        339.5       338.9       338.3       337.6       336.8       335.9       334.9       333.8       332.5       331.1    
        329.5       327.6       325.5       323.1       320.2    
  14    342.0       342.0       341.9       341.8       341.6       341.4       341.1       340.8       340.4       340.0    
        339.5       338.9       338.3       337.6       336.8       335.9       334.9       333.8       332.5       331.1    
        329.5       327.6       325.5       323.1       320.2    
  15    342.0       342.0       341.9       341.8       341.6       341.4       341.1       340.8       340.4       340.0    
        339.5       338.9       338.3       337.6       336.8       335.9       334.9       333.8       332.5       331.1    
        329.5       327.6       325.5       323.1       320.2    
  16    342.0       342.0       341.9       341.8       341.6       341.4       341.1       340.8       340.4       340.0    
        339.5       338.9       338.3       337.6       336.8       335.9       334.9       333.8       332.5       331.1    
        329.5       327.6       325.5       323.1       320.2    
  17    342.0       342.0       341.9       341.8       341.6       341.4       341.1       340.8       340.4       340.0    
        339.5       338.9       338.3       337.6       336.8       335.9       334.9       333.8       332.5       331.1    
        329.5       327.6       325.5       323.1       320.2    
  18    342.0       342.0       341.9       341.8       341.6       341.4       341.1       340.8       340.4       340.0    
        339.5       339.0       338.3       337.6       336.8       335.9       334.9       333.8       332.5       331.1    
        329.5       327.6       325.5       323.1       320.2    
  19    342.0       342.0       341.9       341.8       341.6       341.4       341.1       340.8       340.4       340.0    
        339.5       339.0       338.3       337.6       336.8       336.0       335.0       333.8       332.5       331.1    
        329.5       327.6       325.5       323.1       320.2    
  20    342.0       342.0       341.9       341.8       341.6       341.4       341.1       340.8       340.4       340.0    
        339.5       339.0       338.4       337.7       336.9       336.0       335.0       333.8       332.6       331.1    
        329.5       327.6       325.5       323.1       320.2    
  21    342.0       342.0       341.9       341.8       341.6       341.4       341.1       340.8       340.4       340.0    
        339.5       339.0       338.4       337.7       336.9       336.0       335.0       333.8       332.6       331.1    
        329.5       327.6       325.5       323.1       320.2    
  22    342.0       342.0       341.9       341.8       341.6       341.4       341.1       340.8       340.5       340.0    
        339.5       339.0       338.4       337.7       336.9       336.0       335.0       333.8       332.6       331.1    
        329.5       327.6       325.5       323.1       320.2    
  23    342.0       342.0       341.9       341.8       341.6       341.4       341.1       340.8       340.5       340.0    
        339.6       339.0       338.4       337.7       336.9       336.0       335.0       333.8       332.6       331.1    
        329.5       327.6       325.5       323.1       320.2    
  24    342.0       342.0       341.9       341.8       341.6       341.4       341.1       340.8       340.5       340.0    
        339.6       339.0       338.4       337.7       336.9       336.0       335.0       333.9       332.6       331.1    
        329.5       327.6       325.5       323.1       320.2    
  25    342.0       342.0       341.9       341.8       341.6       341.4       341.1       340.8       340.5       340.0    
        339.6       339.0       338.4       337.7       336.9       336.0       335.0       333.9       332.6       331.1    
        329.5       327.6       325.5       323.1       320.2    
1
              HEAD IN LAYER   2 AT END OF TIME STEP   5 IN STRESS PERIOD    2
  ---------------------------------------------------------------------------

            1           2           3           4           5           6           7           8           9          10
           11          12          13          14          15          16          17          18          19          20
           21          22          23          24          25
 ........................................................................................................................
   1    342.0       342.0       341.9       341.8       341.6       341.4       341.1       340.8       340.4       340.0    
        339.5       339.0       338.4       337.7       336.9       336.0       335.0       333.8       332.6       331.1    
        329.5       327.6       325.5       323.1       320.4    
   2    342.0       342.0       341.9       341.8       341.6       341.4       341.1       340.8       340.4       340.0    
        339.5       339.0       338.4       337.7       336.9       336.0       335.0       333.8       332.6       331.1    
        329.5       327.6       325.5       323.1       320.4    
   3    342.0       342.0       341.9       341.8       341.6       341.4       341.1       340.8       340.4       340.0    
        339.5       339.0       338.4       337.7       336.9       336.0       335.0       333.8       332.6       331.1    
        329.5       327.6       325.5       323.1       320.4    
   4    342.0       342.0       341.9       341.8       341.6       341.4       341.1       340.8       340.4       340.0    
        339.5       339.0       338.3       337.6       336.9       336.0       335.0       333.8       332.6       331.1    
        329.5       327.6       325.5       323.1       320.4    
   5    342.0       342.0       341.9       341.8       341.6       341.4       341.1       340.8       340.4       340.0    
        339.5       339.0       338.3       337.6       336.8       336.0       335.0       333.8       332.5       331.1    
        329.5       327.6       325.5       323.1       320.4    
   6    342.0       342.0       341.9       341.8       341.6       341.4       341.1       340.8       340.4       340.0    
        339.5       339.0       338.3       337.6       336.8       335.9       334.9       333.8       332.5       331.1    
        329.5       327.6       325.5       323.1       320.4    
   7    342.0       342.0       341.9       341.7       341.6       341.4       341.1       340.8       340.4       340.0    
        339.5       338.9       338.3       337.6       336.8       335.9       334.9       333.8       332.5       331.1    
        329.5       327.6       325.5       323.1       320.4    
   8    342.0       342.0       341.9       341.7       341.6       341.3       341.1       340.8       340.4       340.0    
        339.5       338.9       338.3       337.6       336.8       335.9       334.9       333.8       332.5       331.1    
        329.5       327.6       325.5       323.1       320.4    
   9    342.0       342.0       341.9       341.7       341.6       341.3       341.1       340.8       340.4       340.0    
        339.5       338.9       338.3       337.6       336.8       335.9       334.9       333.8       332.5       331.1    
        329.4       327.6       325.5       323.1       320.4    
  10    342.0       341.9       341.9       341.7       341.6       341.3       341.1       340.7       340.4       339.9    
        339.5       338.9       338.3       337.6       336.8       335.9       334.9       333.8       332.5       331.1    
        329.4       327.6       325.5       323.1       320.4    
  11    342.0       341.9       341.9       341.7       341.6       341.3       341.1       340.7       340.4       339.9    
        339.4       338.9       338.3       337.6       336.8       335.9       334.9       333.8       332.5       331.1    
        329.4       327.6       325.5       323.1       320.4    
  12    342.0       341.9       341.9       341.7       341.6       341.3       341.1       340.7       340.4       339.9    
        339.4       338.9       338.3       337.6       336.8       335.9       334.9       333.8       332.5       331.1    
        329.4       327.6       325.5       323.1       320.4    
  13    342.0       341.9       341.9       341.7       341.6       341.3       341.1       340.7       340.4       339.9    
        339.4       338.9       338.2       337.6       336.8       335.9       334.9       333.8       332.5       331.1    
        329.4       327.6       325.5       323.1       320.4    
  14    342.0       341.9       341.9       341.7       341.6       341.3       341.1       340.7       340.4       339.9    
        339.4       338.9       338.3       337.6       336.8       335.9       334.9       333.8       332.5       331.1    
        329.4       327.6       325.5       323.1       320.4    
  15    342.0       341.9       341.9       341.7       341.6       341.3       341.1       340.7       340.4       339.9    
        339.4       338.9       338.3       337.6       336.8       335.9       334.9       333.8       332.5       331.1    
        329.4       327.6       325.5       323.1       320.4    
  16    342.0       341.9       341.9       341.7       341.6       341.3       341.1       340.7       340.4       339.9    
        339.5       338.9       338.3       337.6       336.8       335.9       334.9       333.8       332.5       331.1    
        329.4       327.6       325.5       323.1       320.4    
  17    342.0       342.0       341.9       341.7       341.6       341.3       341.1       340.8       340.4       340.0    
        339.5       338.9       338.3       337.6       336.8       335.9       334.9       333.8       332.5       331.1    
        329.4       327.6       325.5       323.1       320.4    
  18    342.0       342.0       341.9       341.7       341.6       341.3       341.1       340.8       340.4       340.0    
        339.5       338.9       338.3       337.6       336.8       335.9       334.9       333.8       332.5       331.1    
        329.5       327.6       325.5       323.1       320.4    
  19    342.0       342.0       341.9       341.7       341.6       341.4       341.1       340.8       340.4       340.0    
        339.5       338.9       338.3       337.6       336.8       335.9       334.9       333.8       332.5       331.1    
        329.5       327.6       325.5       323.1       320.4    
  20    342.0       342.0       341.9       341.8       341.6       341.4       341.1       340.8       340.4       340.0    
        339.5       339.0       338.3       337.6       336.8       335.9       334.9       333.8       332.5       331.1    
        329.5       327.6       325.5       323.1       320.4    
  21    342.0       342.0       341.9       341.8       341.6       341.4       341.1       340.8       340.4       340.0    
        339.5       339.0       338.3       337.6       336.8       336.0       335.0       333.8       332.5       331.1    
        329.5       327.6       325.5       323.1       320.4    
  22    342.0       342.0       341.9       341.8       341.6       341.4       341.1       340.8       340.4       340.0    
        339.5       339.0       338.3       337.6       336.9       336.0       335.0       333.8       332.6       331.1    
        329.5       327.6       325.5       323.1       320.4    
  23    342.0       342.0       341.9       341.8       341.6       341.4       341.1       340.8       340.4       340.0    
        339.5       339.0       338.4       337.7       336.9       336.0       335.0       333.8       332.6       331.1    
        329.5       327.6       325.5       323.1       320.4    
  24    342.0       342.0       341.9       341.8       341.6       341.4       341.1       340.8       340.4       340.0    
        339.5       339.0       338.4       337.7       336.9       336.0       335.0       333.8       332.6       331.1    
        329.5       327.6       325.5       323.1       320.4    
  25    342.0       342.0       341.9       341.8       341.6       341.4       341.1       340.8       340.4       340.0    
        339.5       339.0       338.4       337.7       336.9       336.0       335.0       333.8       332.6       331.1    
        329.5       327.6       325.5       323.1       320.4    
1
              HEAD IN LAYER   3 AT END OF TIME STEP   5 IN STRESS PERIOD    2
  ---------------------------------------------------------------------------

            1           2           3           4           5           6           7           8           9          10
           11          12          13          14          15          16          17          18          19          20
           21          22          23          24          25
 ........................................................................................................................
   1    338.0       338.0       338.0       337.9       337.8       337.6       337.5       337.3       337.0       336.8    
        336.5       336.2       335.8       335.4       334.9       334.4       333.9       333.3       332.6       331.8    
        330.9       330.0       328.9       327.6       326.3    
   2    338.0       338.0       338.0       337.9       337.8       337.6       337.5       337.3       337.0       336.8    
        336.5       336.1       335.8       335.4       334.9       334.4       333.9       333.2       332.6       331.8    
        330.9       330.0       328.9       327.6       326.3    
   3    338.0       338.0       337.9       337.9       337.8       337.6       337.4       337.2       337.0       336.8    
        336.5       336.1       335.8       335.4       334.9       334.4       333.9       333.2       332.6       331.8    
        330.9       330.0       328.9       327.6       326.3    
   4    338.0       338.0       337.9       337.9       337.7       337.6       337.4       337.2       337.0       336.7    
        336.4       336.1       335.7       335.3       334.9       334.4       333.8       333.2       332.5       331.8    
        330.9       330.0       328.9       327.6       326.3    
   5    338.0       338.0       337.9       337.8       337.7       337.6       337.4       337.2       337.0       336.7    
        336.4       336.1       335.7       335.3       334.9       334.4       333.8       333.2       332.5       331.8    
        330.9       329.9       328.9       327.6       326.3    
   6    338.0       338.0       337.9       337.8       337.7       337.6       337.4       337.2       337.0       336.7    
        336.4       336.1       335.7       335.3       334.8       334.4       333.8       333.2       332.5       331.8    
        330.9       329.9       328.8       327.6       326.3    
   7    338.0       338.0       337.9       337.8       337.7       337.6       337.4       337.2       336.9       336.7    
        336.4       336.0       335.7       335.2       334.8       334.3       333.8       333.2       332.5       331.7    
        330.9       329.9       328.8       327.6       326.3    
   8    338.0       338.0       337.9       337.8       337.7       337.5       337.4       337.1       336.9       336.6    
        336.3       336.0       335.6       335.2       334.8       334.3       333.7       333.1       332.5       331.7    
        330.9       329.9       328.8       327.6       326.3    
   9    338.0       338.0       337.9       337.8       337.7       337.5       337.3       337.1       336.9       336.6    
        336.3       335.9       335.5       335.1       334.7       334.2       333.7       333.1       332.5       331.7    
        330.9       329.9       328.8       327.6       326.2    
  10    338.0       338.0       337.9       337.8       337.7       337.5       337.3       337.1       336.8       336.5    
        336.2       335.8       335.4       335.1       334.6       334.2       333.7       333.1       332.4       331.7    
        330.8       329.9       328.8       327.6       326.2    
  11    338.0       337.9       337.9       337.8       337.7       337.5       337.3       337.1       336.8       336.5    
        336.1       335.7       335.3       335.0       334.6       334.1       333.6       333.1       332.4       331.7    
        330.8       329.9       328.8       327.6       326.2    
  12    338.0       337.9       337.9       337.8       337.7       337.5       337.3       337.1       336.8       336.4    
        336.1       335.6       335.1       334.8       334.5       334.1       333.6       333.1       332.4       331.7    
        330.8       329.9       328.8       327.6       326.2    
  13    338.0       337.9       337.9       337.8       337.7       337.5       337.3       337.0       336.8       336.4    
        336.0       335.5       334.9       334.7       334.5       334.1       333.6       333.0       332.4       331.7    
        330.8       329.9       328.8       327.6       326.2    
  14    338.0       337.9       337.9       337.8       337.7       337.5       337.3       337.1       336.8       336.4    
        336.1       335.6       335.1       334.8       334.5       334.1       333.6       333.1       332.4       331.7    
        330.8       329.9       328.8       327.6       326.2    
  15    338.0       337.9       337.9       337.8       337.7       337.5       337.3       337.1       336.8       336.5    
        336.1       335.7       335.3       335.0       334.6       334.1       333.6       333.1       332.4       331.7    
        330.8       329.9       328.8       327.6       326.2    
  16    338.0       338.0       337.9       337.8       337.7       337.5       337.3       337.1       336.8       336.5    
        336.2       335.8       335.4       335.1       334.6       334.2       333.7       333.1       332.4       331.7    
        330.8       329.9       328.8       327.6       326.2    
  17    338.0       338.0       337.9       337.8       337.7       337.5       337.3       337.1       336.9       336.6    
        336.3       335.9       335.5       335.1       334.7       334.2       333.7       333.1       332.5       331.7    
        330.9       329.9       328.8       327.6       326.2    
  18    338.0       338.0       337.9       337.8       337.7       337.5       337.4       337.1       336.9       336.6    
        336.3       336.0       335.6       335.2       334.8       334.3       333.7       333.1       332.5       331.7    
        330.9       329.9       328.8       327.6       326.3    
  19    338.0       338.0       337.9       337.8       337.7       337.6       337.4       337.2       336.9       336.7    
        336.4       336.0       335.7       335.2       334.8       334.3       333.8       333.2       332.5       331.7    
        330.9       329.9       328.8       327.6       326.3    
  20    338.0       338.0       337.9       337.8       337.7       337.6       337.4       337.2       337.0       336.7    
        336.4       336.1       335.7       335.3       334.8       334.4       333.8       333.2       332.5       331.8    
        330.9       329.9       328.8       327.6       326.3    
  21    338.0       338.0       337.9       337.8       337.7       337.6       337.4       337.2       337.0       336.7    
        336.4       336.1       335.7       335.3       334.9       334.4       333.8       333.2       332.5       331.8    
        330.9       329.9       328.9       327.6       326.3    
  22    338.0       338.0       337.9       337.9       337.7       337.6       337.4       337.2       337.0       336.7    
        336.4       336.1       335.7       335.3       334.9       334.4       333.8       333.2       332.5       331.8    
        330.9       330.0       328.9       327.6       326.3    
  23    338.0       338.0       337.9       337.9       337.8       337.6       337.4       337.2       337.0       336.8    
        336.5       336.1       335.8       335.4       334.9       334.4       333.9       333.2       332.6       331.8    
        330.9       330.0       328.9       327.6       326.3    
  24    338.0       338.0       338.0       337.9       337.8       337.6       337.5       337.3       337.0       336.8    
        336.5       336.1       335.8       335.4       334.9       334.4       333.9       333.3       332.6       331.8    
        330.9       330.0       328.9       327.6       326.3    
  25    338.0       338.0       338.0       337.9       337.8       337.6       337.5       337.3       337.0       336.8    
        336.5       336.2       335.8       335.4       334.9       334.4       333.9       333.3       332.6       331.8    
        330.9       330.0       328.9       327.6       326.3    
1
              HEAD IN LAYER   4 AT END OF TIME STEP   5 IN STRESS PERIOD    2
  ---------------------------------------------------------------------------

            1           2           3           4           5           6           7           8           9          10
           11          12          13          14          15          16          17          18          19          20
           21          22          23          24          25
 ........................................................................................................................
   1    334.1       334.0       334.0       334.0       333.9       333.9       333.8       333.7       333.6       333.5    
        333.4       333.3       333.2       333.1       333.0       332.9       332.8       332.7       332.6       332.5    
        332.4       332.3       332.2       332.2       332.2    
   2    334.0       334.0       334.0       334.0       333.9       333.9       333.8       333.7       333.6       333.5    
        333.4       333.3       333.2       333.1       333.0       332.9       332.8       332.7       332.6       332.5    
        332.4       332.3       332.2       332.2       332.2    
   3    334.0       334.0       334.0       334.0       333.9       333.8       333.8       333.7       333.6       333.5    
        333.4       333.3       333.2       333.1       333.0       332.9       332.7       332.6       332.5       332.5    
        332.4       332.3       332.2       332.2       332.2    
   4    334.0       334.0       334.0       334.0       333.9       333.8       333.8       333.7       333.6       333.5    
        333.4       333.3       333.1       333.0       332.9       332.8       332.7       332.6       332.5       332.4    
        332.4       332.3       332.2       332.2       332.1    
   5    334.0       334.0       334.0       333.9       333.9       333.8       333.7       333.6       333.5       333.4    
        333.3       333.2       333.1       333.0       332.9       332.8       332.7       332.6       332.5       332.4    
        332.3       332.3       332.2       332.2       332.1    
   6    334.0       334.0       334.0       333.9       333.9       333.8       333.7       333.6       333.5       333.4    
        333.3       333.2       333.1       332.9       332.8       332.8       332.7       332.6       332.5       332.4    
        332.3       332.3       332.2       332.2       332.1    
   7    334.0       334.0       334.0       333.9       333.8       333.8       333.7       333.6       333.5       333.3    
        333.2       333.1       333.0       332.9       332.8       332.7       332.6       332.5       332.5       332.4    
        332.3       332.2       332.2       332.1       332.1    
   8    334.0       334.0       333.9       333.9       333.8       333.7       333.6       333.5       333.4       333.3    
        333.1       333.0       332.9       332.8       332.7       332.6       332.6       332.5       332.4       332.4    
        332.3       332.2       332.2       332.1       332.1    
   9    334.0       334.0       333.9       333.9       333.8       333.7       333.6       333.5       333.3       333.2    
        333.0       332.9       332.8       332.7       332.6       332.6       332.5       332.4       332.4       332.3    
        332.3       332.2       332.2       332.1       332.1    
  10    334.0       333.9       333.9       333.9       333.8       333.7       333.6       333.4       333.3       333.1    
        332.9       332.8       332.6       332.5       332.5       332.5       332.4       332.4       332.4       332.3    
        332.2       332.2       332.1       332.1       332.1    
  11    334.0       333.9       333.9       333.8       333.8       333.7       333.5       333.4       333.2       333.0    
        332.8       332.6       332.4       332.3       332.4       332.4       332.4       332.4       332.3       332.3    
        332.2       332.2       332.1       332.1       332.1    
  12    334.0       333.9       333.9       333.8       333.8       333.6       333.5       333.4       333.2       332.9    
        332.7       332.3       332.0       332.1       332.2       332.3       332.3       332.3       332.3       332.3    
        332.2       332.2       332.1       332.1       332.1    
  13    334.0       333.9       333.9       333.8       333.7       333.6       333.5       333.4       333.2       332.9    
        332.6       332.1       331.6       331.9       332.2       332.3       332.3       332.3       332.3       332.3    
        332.2       332.2       332.1       332.1       332.1    
  14    334.0       333.9       333.9       333.8       333.8       333.6       333.5       333.4       333.2       332.9    
        332.7       332.3       332.0       332.1       332.2       332.3       332.3       332.3       332.3       332.3    
        332.2       332.2       332.1       332.1       332.1    
  15    334.0       333.9       333.9       333.8       333.8       333.7       333.5       333.4       333.2       333.0    
        332.8       332.6       332.4       332.3       332.4       332.4       332.4       332.4       332.3       332.3    
        332.2       332.2       332.1       332.1       332.1    
  16    334.0       333.9       333.9       333.9       333.8       333.7       333.6       333.4       333.3       333.1    
        332.9       332.8       332.6       332.5       332.5       332.5       332.4       332.4       332.4       332.3    
        332.2       332.2       332.1       332.1       332.1    
  17    334.0       334.0       333.9       333.9       333.8       333.7       333.6       333.5       333.3       333.2    
        333.0       332.9       332.8       332.7       332.6       332.6       332.5       332.4       332.4       332.3    
        332.3       332.2       332.2       332.1       332.1    
  18    334.0       334.0       333.9       333.9       333.8       333.7       333.6       333.5       333.4       333.3    
        333.1       333.0       332.9       332.8       332.7       332.6       332.6       332.5       332.4       332.4    
        332.3       332.2       332.2       332.1       332.1    
  19    334.0       334.0       334.0       333.9       333.8       333.8       333.7       333.6       333.5       333.3    
        333.2       333.1       333.0       332.9       332.8       332.7       332.6       332.5       332.5       332.4    
        332.3       332.2       332.2       332.1       332.1    
  20    334.0       334.0       334.0       333.9       333.9       333.8       333.7       333.6       333.5       333.4    
        333.3       333.2       333.1       332.9       332.8       332.8       332.7       332.6       332.5       332.4    
        332.3       332.3       332.2       332.2       332.1    
  21    334.0       334.0       334.0       333.9       333.9       333.8       333.7       333.6       333.5       333.4    
        333.3       333.2       333.1       333.0       332.9       332.8       332.7       332.6       332.5       332.4    
        332.3       332.3       332.2       332.2       332.1    
  22    334.0       334.0       334.0       334.0       333.9       333.8       333.8       333.7       333.6       333.5    
        333.4       333.3       333.1       333.0       332.9       332.8       332.7       332.6       332.5       332.4    
        332.4       332.3       332.2       332.2       332.1    
  23    334.0       334.0       334.0       334.0       333.9       333.8       333.8       333.7       333.6       333.5    
        333.4       333.3       333.2       333.1       333.0       332.9       332.7       332.6       332.5       332.5    
        332.4       332.3       332.2       332.2       332.2    
  24    334.0       334.0       334.0       334.0       333.9       333.9       333.8       333.7       333.6       333.5    
        333.4       333.3       333.2       333.1       333.0       332.9       332.8       332.7       332.6       332.5    
        332.4       332.3       332.2       332.2       332.2    
  25    334.1       334.0       334.0       334.0       333.9       333.9       333.8       333.7       333.6       333.5    
        333.4       333.3       333.2       333.1       333.0       332.9       332.8       332.7       332.6       332.5    
        332.4       332.3       332.2       332.2       332.2    
1
              HEAD IN LAYER   5 AT END OF TIME STEP   5 IN STRESS PERIOD    2
  ---------------------------------------------------------------------------

            1           2           3           4           5           6           7           8           9          10
           11          12          13          14          15          16          17          18          19          20
           21          22          23          24          25
 ........................................................................................................................
   1    334.0       334.0       334.0       334.0       333.9       333.8       333.8       333.7       333.6       333.5    
        333.4       333.3       333.2       333.1       333.0       332.9       332.8       332.7       332.6       332.5    
        332.4       332.3       332.3       332.2       332.2    
   2    334.0       334.0       334.0       334.0       333.9       333.8       333.8       333.7       333.6       333.5    
        333.4       333.3       333.2       333.1       333.0       332.9       332.8       332.7       332.6       332.5    
        332.4       332.3       332.2       332.2       332.2    
   3    334.0       334.0       334.0       334.0       333.9       333.8       333.8       333.7       333.6       333.5    
        333.4       333.3       333.2       333.1       333.0       332.8       332.7       332.6       332.5       332.5    
        332.4       332.3       332.2       332.2       332.2    
   4    334.0       334.0       334.0       333.9       333.9       333.8       333.7       333.7       333.6       333.5    
        333.4       333.2       333.1       333.0       332.9       332.8       332.7       332.6       332.5       332.4    
        332.4       332.3       332.2       332.2       332.2    
   5    334.0       334.0       334.0       333.9       333.9       333.8       333.7       333.6       333.5       333.4    
        333.3       333.2       333.1       333.0       332.9       332.8       332.7       332.6       332.5       332.4    
        332.3       332.3       332.2       332.2       332.2    
   6    334.0       334.0       334.0       333.9       333.9       333.8       333.7       333.6       333.5       333.4    
        333.3       333.2       333.0       332.9       332.8       332.7       332.7       332.6       332.5       332.4    
        332.3       332.3       332.2       332.2       332.1    
   7    334.0       334.0       333.9       333.9       333.8       333.8       333.7       333.6       333.4       333.3    
        333.2       333.1       333.0       332.9       332.8       332.7       332.6       332.5       332.5       332.4    
        332.3       332.2       332.2       332.2       332.1    
   8    334.0       334.0       333.9       333.9       333.8       333.7       333.6       333.5       333.4       333.3    
        333.1       333.0       332.9       332.8       332.7       332.6       332.6       332.5       332.4       332.4    
        332.3       332.2       332.2       332.1       332.1    
   9    334.0       333.9       333.9       333.9       333.8       333.7       333.6       333.5       333.3       333.2    
        333.0       332.9       332.8       332.7       332.6       332.6       332.5       332.4       332.4       332.3    
        332.3       332.2       332.2       332.1       332.1    
  10    334.0       333.9       333.9       333.8       333.8       333.7       333.6       333.4       333.3       333.1    
        332.9       332.7       332.6       332.5       332.5       332.5       332.4       332.4       332.4       332.3    
        332.2       332.2       332.1       332.1       332.1    
  11    333.9       333.9       333.9       333.8       333.8       333.7       333.5       333.4       333.2       333.0    
        332.8       332.5       332.3       332.3       332.4       332.4       332.4       332.4       332.3       332.3    
        332.2       332.2       332.1       332.1       332.1    
  12    333.9       333.9       333.9       333.8       333.7       333.6       333.5       333.4       333.2       332.9    
        332.6       332.3       331.9       332.1       332.2       332.3       332.3       332.3       332.3       332.3    
        332.2       332.2       332.1       332.1       332.1    
  13    333.9       333.9       333.9       333.8       333.7       333.6       333.5       333.3       333.1       332.9    
        332.6       332.0       330.4       331.7       332.1       332.3       332.3       332.3       332.3       332.3    
        332.2       332.2       332.1       332.1       332.1    
  14    333.9       333.9       333.9       333.8       333.7       333.6       333.5       333.4       333.2       332.9    
        332.6       332.3       331.9       332.1       332.2       332.3       332.3       332.3       332.3       332.3    
        332.2       332.2       332.1       332.1       332.1    
  15    333.9       333.9       333.9       333.8       333.8       333.7       333.5       333.4       333.2       333.0    
        332.8       332.5       332.3       332.3       332.4       332.4       332.4       332.4       332.3       332.3    
        332.2       332.2       332.1       332.1       332.1    
  16    334.0       333.9       333.9       333.8       333.8       333.7       333.6       333.4       333.3       333.1    
        332.9       332.7       332.6       332.5       332.5       332.5       332.4       332.4       332.4       332.3    
        332.2       332.2       332.1       332.1       332.1    
  17    334.0       333.9       333.9       333.9       333.8       333.7       333.6       333.5       333.3       333.2    
        333.0       332.9       332.8       332.7       332.6       332.6       332.5       332.4       332.4       332.3    
        332.3       332.2       332.2       332.1       332.1    
  18    334.0       334.0       333.9       333.9       333.8       333.7       333.6       333.5       333.4       333.3    
        333.1       333.0       332.9       332.8       332.7       332.6       332.6       332.5       332.4       332.4    
        332.3       332.2       332.2       332.1       332.1    
  19    334.0       334.0       333.9       333.9       333.8       333.8       333.7       333.6       333.4       333.3    
        333.2       333.1       333.0       332.9       332.8       332.7       332.6       332.5       332.5       332.4    
        332.3       332.2       332.2       332.2       332.1    
  20    334.0       334.0       334.0       333.9       333.9       333.8       333.7       333.6       333.5       333.4    
        333.3       333.2       333.0       332.9       332.8       332.7       332.7       332.6       332.5       332.4    
        332.3       332.3       332.2       332.2       332.1    
  21    334.0       334.0       334.0       333.9       333.9       333.8       333.7       333.6       333.5       333.4    
        333.3       333.2       333.1       333.0       332.9       332.8       332.7       332.6       332.5       332.4    
        332.3       332.3       332.2       332.2       332.2    
  22    334.0       334.0       334.0       333.9       333.9       333.8       333.7       333.7       333.6       333.5    
        333.4       333.2       333.1       333.0       332.9       332.8       332.7       332.6       332.5       332.4    
        332.4       332.3       332.2       332.2       332.2    
  23    334.0       334.0       334.0       334.0       333.9       333.8       333.8       333.7       333.6       333.5    
        333.4       333.3       333.2       333.1       333.0       332.8       332.7       332.6       332.5       332.5    
        332.4       332.3       332.2       332.2       332.2    
  24    334.0       334.0       334.0       334.0       333.9       333.8       333.8       333.7       333.6       333.5    
        333.4       333.3       333.2       333.1       333.0       332.9       332.8       332.7       332.6       332.5    
        332.4       332.3       332.2       332.2       332.2    
  25    334.0       334.0       334.0       334.0       333.9       333.8       333.8       333.7       333.6       333.5    
        333.4       333.3       333.2       333.1       333.0       332.9       332.8       332.7       332.6       332.5    
        332.4       332.3       332.3       332.2       332.2    

 HEAD WILL BE SAVED ON UNIT   50 AT END OF TIME STEP   5, STRESS PERIOD    2



          TIME SUMMARY AT END OF TIME STEP   5 IN STRESS PERIOD    2
                    SECONDS     MINUTES      HOURS       DAYS        YEARS
                    -----------------------------------------------------------
   TIME STEP LENGTH 3.85952E+07 6.43254E+05  10721.      446.70      1.2230    
 STRESS PERIOD TIME 1.00538E+08 1.67564E+06  27927.      1163.6      3.1859    
         TOTAL TIME 1.73805E+10 2.89676E+08 4.82793E+06 2.01164E+05  550.76    
1
 
 SOLVING FOR HEAD 
     4 CALLS TO PCG ROUTINE FOR TIME STEP   6 IN STRESS PERIOD    2
    37 TOTAL ITERATIONS

 MAXIMUM HEAD CHANGE FOR EACH ITERATION (1 INDICATES THE FIRST INNER ITERATION):

    HEAD CHANGE    HEAD CHANGE    HEAD CHANGE    HEAD CHANGE    HEAD CHANGE 
   LAYER,ROW,COL  LAYER,ROW,COL  LAYER,ROW,COL  LAYER,ROW,COL  LAYER,ROW,COL
 ---------------------------------------------------------------------------
  1 -0.9958      0 -0.2547      0 -0.9450E-01  0 -0.1510      0  0.8873E-01
   (  1, 25,  3)  (  5,  1, 21)  (  5,  1, 25)  (  2,  1, 18)  (  3,  1, 24)
  0  0.7429E-01  0  0.4220E-01  0  0.1120E-01  0  0.1042E-01  0  0.8601E-02
   (  3, 15, 24)  (  3, 24, 24)  (  3,  7, 24)  (  2,  1, 22)  (  2,  1, 22)
  0  0.6335E-02  0 -0.5693E-02  0 -0.6612E-02  0 -0.4721E-02  0 -0.1933E-02
   (  2,  1, 23)  (  3, 23, 24)  (  3,  3, 24)  (  3,  2, 24)  (  3,  1, 24)
  0 -0.9757E-03  0 -0.4680E-03  0  0.3963E-03  0  0.3062E-03  0  0.1493E-03
   (  3,  1, 24)  (  2,  1, 24)  (  3,  2, 24)  (  3,  2, 24)  (  3,  1, 24)
  1  0.1406E-01  0  0.4989E-02  0  0.4930E-02  0  0.6887E-02  0 -0.1838E-02
   (  2, 24,  6)  (  5,  1, 19)  (  5,  1, 24)  (  3, 19,  1)  (  3,  1, 23)
  0  0.1701E-02  0 -0.5132E-03  0  0.5042E-03  0  0.4072E-03  0 -0.3387E-03
   (  1, 25, 18)  (  3, 24, 24)  (  3,  2,  1)  (  3, 14,  2)  (  3,  3, 24)
  0 -0.3653E-03  0 -0.2232E-03  0 -0.1090E-03  0  0.6910E-04  1  0.1868E-03
   (  3, 25, 24)  (  3,  2, 24)  (  2, 25, 16)  (  3,  2, 23)  (  1,  3, 20)
  0  0.7214E-04  1 -0.4162E-04
   (  1, 25, 21)  (  3,  9,  1)

 MAXIMUM RESIDUAL FOR EACH ITERATION (1 INDICATES THE FIRST INNER ITERATION):

    RESIDUAL       RESIDUAL       RESIDUAL       RESIDUAL       RESIDUAL    
   LAYER,ROW,COL  LAYER,ROW,COL  LAYER,ROW,COL  LAYER,ROW,COL  LAYER,ROW,COL
 ---------------------------------------------------------------------------
  1  -671.7      0  -554.0      0  -502.3      0  -349.1      0  -316.9    
   (  5, 25, 23)  (  2, 25, 24)  (  2, 25, 24)  (  2, 24, 24)  (  2, 24, 24)
  0  -267.7      0  -231.4      0  -188.7      0  -134.7      0  -102.5    
   (  2,  2, 24)  (  2,  2, 24)  (  2,  2, 24)  (  2,  1, 24)  (  2,  1, 24)
  0  -62.42      0   26.64      0  -18.16      0  -11.22      0  -7.525    
   (  2,  1, 24)  (  1,  1, 25)  (  2,  2, 22)  (  2,  2, 23)  (  2,  2, 23)
  0   5.618      0   4.958      0   3.667      0   2.267      0   1.526    
   (  1,  2, 25)  (  1,  1, 25)  (  1,  1, 25)  (  1,  1, 25)  (  1,  1, 25)
  1   18.21      0   17.65      0   13.18      0  -10.76      0  -8.103    
   (  1,  5, 25)  (  1,  5, 25)  (  1,  2, 25)  (  2,  2, 24)  (  2,  1, 24)
  0  -5.239      0   3.912      0  -3.027      0   2.828      0   2.379    
   (  2,  1, 24)  (  2,  2, 23)  (  1,  2, 20)  (  2,  2, 24)  (  2,  2, 24)
  0   1.528      0   1.183      0  0.6960      0  0.4773      1 -0.4748    
   (  2,  1, 24)  (  2,  1, 24)  (  2,  1, 24)  (  2,  2, 22)  (  1,  1, 22)
  0 -0.4336      1 -0.4082    
   (  1,  1, 22)  (  1,  1, 22)



 OUTPUT CONTROL FOR STRESS PERIOD    2   TIME STEP   6
    SAVE BUDGET
    PRINT HEAD FOR ALL LAYERS
    SAVE HEAD FOR ALL LAYERS
 UBDSV1 SAVING "         STORAGE" ON UNIT  53 AT TIME STEP  6, STRESS PERIOD   2
 UBDSV2 SAVING "   CONSTANT HEAD" ON UNIT  53 AT TIME STEP  6, STRESS PERIOD   2
 UBDSV1 SAVING "FLOW RIGHT FACE " ON UNIT  53 AT TIME STEP  6, STRESS PERIOD   2
 UBDSV1 SAVING "FLOW FRONT FACE " ON UNIT  53 AT TIME STEP  6, STRESS PERIOD   2
 UBDSV1 SAVING "FLOW LOWER FACE " ON UNIT  53 AT TIME STEP  6, STRESS PERIOD   2
 UBDSV4 SAVING "           WELLS" ON UNIT  53 AT TIME STEP  6, STRESS PERIOD   2
 UBDSV4 SAVING "   RIVER LEAKAGE" ON UNIT  53 AT TIME STEP  6, STRESS PERIOD   2
 UBDSV3 SAVING "        RECHARGE" ON UNIT  53 AT TIME STEP  6, STRESS PERIOD   2
1
              HEAD IN LAYER   1 AT END OF TIME STEP   6 IN STRESS PERIOD    2
  ---------------------------------------------------------------------------

            1           2           3           4           5           6           7           8           9          10
           11          12          13          14          15          16          17          18          19          20
           21          22          23          24          25
 ........................................................................................................................
   1    340.9       340.8       340.8       340.6       340.5       340.3       340.0       339.7       339.4       339.0    
        338.5       338.0       337.4       336.8       336.0       335.2       334.2       333.2       331.9       330.6    
        329.0       327.2       325.2       322.9       320.2    
   2    340.9       340.8       340.8       340.6       340.5       340.3       340.0       339.7       339.4       339.0    
        338.5       338.0       337.4       336.8       336.0       335.2       334.2       333.2       331.9       330.6    
        329.0       327.2       325.2       322.9       320.2    
   3    340.9       340.8       340.8       340.6       340.5       340.3       340.0       339.7       339.4       339.0    
        338.5       338.0       337.4       336.8       336.0       335.2       334.2       333.1       331.9       330.6    
        329.0       327.2       325.2       322.9       320.2    
   4    340.9       340.8       340.7       340.6       340.5       340.3       340.0       339.7       339.4       339.0    
        338.5       338.0       337.4       336.8       336.0       335.2       334.2       333.1       331.9       330.6    
        329.0       327.2       325.2       322.9       320.2    
   5    340.9       340.8       340.7       340.6       340.5       340.3       340.0       339.7       339.4       339.0    
        338.5       338.0       337.4       336.7       336.0       335.2       334.2       333.1       331.9       330.6    
        329.0       327.2       325.2       322.9       320.2    
   6    340.9       340.8       340.7       340.6       340.5       340.3       340.0       339.7       339.4       339.0    
        338.5       338.0       337.4       336.7       336.0       335.1       334.2       333.1       331.9       330.6    
        329.0       327.2       325.2       322.9       320.2    
   7    340.9       340.8       340.7       340.6       340.5       340.2       340.0       339.7       339.4       339.0    
        338.5       338.0       337.4       336.7       336.0       335.1       334.2       333.1       331.9       330.5    
        329.0       327.2       325.2       322.9       320.2    
   8    340.8       340.8       340.7       340.6       340.4       340.2       340.0       339.7       339.3       338.9    
        338.5       338.0       337.4       336.7       336.0       335.1       334.2       333.1       331.9       330.5    
        329.0       327.2       325.2       322.9       320.2    
   9    340.8       340.8       340.7       340.6       340.4       340.2       340.0       339.7       339.3       338.9    
        338.5       337.9       337.4       336.7       336.0       335.1       334.2       333.1       331.9       330.5    
        329.0       327.2       325.2       322.9       320.2    
  10    340.8       340.8       340.7       340.6       340.4       340.2       340.0       339.7       339.3       338.9    
        338.5       337.9       337.3       336.7       335.9       335.1       334.2       333.1       331.9       330.5    
        329.0       327.2       325.2       322.9       320.2    
  11    340.8       340.8       340.7       340.6       340.4       340.2       340.0       339.7       339.3       338.9    
        338.4       337.9       337.3       336.7       335.9       335.1       334.2       333.1       331.9       330.5    
        329.0       327.2       325.2       322.9       320.2    
  12    340.8       340.8       340.7       340.6       340.4       340.2       340.0       339.7       339.3       338.9    
        338.4       337.9       337.3       336.7       335.9       335.1       334.1       333.1       331.9       330.5    
        329.0       327.2       325.2       322.9       320.2    
  13    340.8       340.8       340.7       340.6       340.4       340.2       340.0       339.7       339.3       338.9    
        338.4       337.9       337.3       336.7       335.9       335.1       334.1       333.1       331.9       330.5    
        329.0       327.2       325.2       322.9       320.2    
  14    340.8       340.8       340.7       340.6       340.4       340.2       340.0       339.7       339.3       338.9    
        338.4       337.9       337.3       336.7       335.9       335.1       334.1       333.1       331.9       330.5    
        329.0       327.2       325.2       322.9       320.2    
  15    340.8       340.8       340.7       340.6       340.4       340.2       340.0       339.7       339.3       338.9    
        338.4       337.9       337.3       336.7       335.9       335.1       334.2       333.1       331.9       330.5    
        329.0       327.2       325.2       322.9       320.2    
  16    340.8       340.8       340.7       340.6       340.4       340.2       340.0       339.7       339.3       338.9    
        338.5       337.9       337.3       336.7       335.9       335.1       334.2       333.1       331.9       330.5    
        329.0       327.2       325.2       322.9       320.2    
  17    340.8       340.8       340.7       340.6       340.4       340.2       340.0       339.7       339.3       338.9    
        338.5       337.9       337.4       336.7       336.0       335.1       334.2       333.1       331.9       330.5    
        329.0       327.2       325.2       322.9       320.2    
  18    340.8       340.8       340.7       340.6       340.4       340.2       340.0       339.7       339.3       338.9    
        338.5       338.0       337.4       336.7       336.0       335.1       334.2       333.1       331.9       330.5    
        329.0       327.2       325.2       322.9       320.2    
  19    340.9       340.8       340.7       340.6       340.5       340.2       340.0       339.7       339.4       339.0    
        338.5       338.0       337.4       336.7       336.0       335.1       334.2       333.1       331.9       330.5    
        329.0       327.2       325.2       322.9       320.2    
  20    340.9       340.8       340.7       340.6       340.5       340.3       340.0       339.7       339.4       339.0    
        338.5       338.0       337.4       336.7       336.0       335.1       334.2       333.1       331.9       330.6    
        329.0       327.2       325.2       322.9       320.2    
  21    340.9       340.8       340.7       340.6       340.5       340.3       340.0       339.7       339.4       339.0    
        338.5       338.0       337.4       336.7       336.0       335.2       334.2       333.1       331.9       330.6    
        329.0       327.2       325.2       322.9       320.2    
  22    340.9       340.8       340.7       340.6       340.5       340.3       340.0       339.7       339.4       339.0    
        338.5       338.0       337.4       336.8       336.0       335.2       334.2       333.1       331.9       330.6    
        329.0       327.2       325.2       322.9       320.2    
  23    340.9       340.8       340.8       340.6       340.5       340.3       340.0       339.7       339.4       339.0    
        338.5       338.0       337.4       336.8       336.0       335.2       334.2       333.1       331.9       330.6    
        329.0       327.2       325.2       322.9       320.2    
  24    340.9       340.8       340.8       340.6       340.5       340.3       340.0       339.7       339.4       339.0    
        338.5       338.0       337.4       336.8       336.0       335.2       334.2       333.2       331.9       330.6    
        329.0       327.2       325.2       322.9       320.2    
  25    340.9       340.8       340.8       340.6       340.5       340.3       340.0       339.7       339.4       339.0    
        338.5       338.0       337.4       336.8       336.0       335.2       334.2       333.2       331.9       330.6    
        329.0       327.2       325.2       322.9       320.2    
1
              HEAD IN LAYER   2 AT END OF TIME STEP   6 IN STRESS PERIOD    2
  ---------------------------------------------------------------------------

            1           2           3           4           5           6           7           8           9          10
           11          12          13          14          15          16          17          18          19          20
           21          22          23          24          25
 ........................................................................................................................
   1    340.8       340.8       340.7       340.6       340.4       340.2       340.0       339.7       339.4       339.0    
        338.5       338.0       337.4       336.7       336.0       335.2       334.2       333.1       331.9       330.6    
        329.0       327.2       325.2       322.9       320.4    
   2    340.8       340.8       340.7       340.6       340.4       340.2       340.0       339.7       339.4       339.0    
        338.5       338.0       337.4       336.7       336.0       335.2       334.2       333.1       331.9       330.6    
        329.0       327.2       325.2       322.9       320.4    
   3    340.8       340.8       340.7       340.6       340.4       340.2       340.0       339.7       339.4       339.0    
        338.5       338.0       337.4       336.7       336.0       335.2       334.2       333.1       331.9       330.6    
        329.0       327.2       325.2       322.9       320.4    
   4    340.8       340.8       340.7       340.6       340.4       340.2       340.0       339.7       339.4       339.0    
        338.5       338.0       337.4       336.7       336.0       335.1       334.2       333.1       331.9       330.5    
        329.0       327.2       325.2       322.9       320.4    
   5    340.8       340.8       340.7       340.6       340.4       340.2       340.0       339.7       339.3       338.9    
        338.5       338.0       337.4       336.7       336.0       335.1       334.2       333.1       331.9       330.5    
        329.0       327.2       325.2       322.9       320.4    
   6    340.8       340.8       340.7       340.6       340.4       340.2       340.0       339.7       339.3       338.9    
        338.5       338.0       337.4       336.7       336.0       335.1       334.2       333.1       331.9       330.5    
        329.0       327.2       325.2       322.9       320.4    
   7    340.8       340.8       340.7       340.6       340.4       340.2       340.0       339.7       339.3       338.9    
        338.5       338.0       337.4       336.7       336.0       335.1       334.2       333.1       331.9       330.5    
        329.0       327.2       325.2       322.9       320.4    
   8    340.8       340.8       340.7       340.6       340.4       340.2       340.0       339.7       339.3       338.9    
        338.5       337.9       337.4       336.7       335.9       335.1       334.2       333.1       331.9       330.5    
        329.0       327.2       325.2       322.9       320.4    
   9    340.8       340.8       340.7       340.6       340.4       340.2       340.0       339.7       339.3       338.9    
        338.4       337.9       337.3       336.7       335.9       335.1       334.2       333.1       331.9       330.5    
        329.0       327.2       325.2       322.9       320.4    
  10    340.8       340.8       340.7       340.6       340.4       340.2       339.9       339.6       339.3       338.9    
        338.4       337.9       337.3       336.7       335.9       335.1       334.1       333.1       331.9       330.5    
        329.0       327.2       325.2       322.9       320.4    
  11    340.8       340.8       340.7       340.6       340.4       340.2       339.9       339.6       339.3       338.9    
        338.4       337.9       337.3       336.7       335.9       335.1       334.1       333.1       331.9       330.5    
        329.0       327.2       325.2       322.9       320.4    
  12    340.8       340.8       340.7       340.6       340.4       340.2       339.9       339.6       339.3       338.9    
        338.4       337.9       337.3       336.6       335.9       335.1       334.1       333.1       331.9       330.5    
        329.0       327.2       325.2       322.9       320.4    
  13    340.8       340.8       340.7       340.6       340.4       340.2       339.9       339.6       339.3       338.9    
        338.4       337.9       337.3       336.6       335.9       335.1       334.1       333.1       331.9       330.5    
        329.0       327.2       325.2       322.9       320.4    
  14    340.8       340.8       340.7       340.6       340.4       340.2       339.9       339.6       339.3       338.9    
        338.4       337.9       337.3       336.6       335.9       335.1       334.1       333.1       331.9       330.5    
        329.0       327.2       325.2       322.9       320.4    
  15    340.8       340.8       340.7       340.6       340.4       340.2       339.9       339.6       339.3       338.9    
        338.4       337.9       337.3       336.7       335.9       335.1       334.1       333.1       331.9       330.5    
        329.0       327.2       325.2       322.9       320.4    
  16    340.8       340.8       340.7       340.6       340.4       340.2       339.9       339.6       339.3       338.9    
        338.4       337.9       337.3       336.7       335.9       335.1       334.1       333.1       331.9       330.5    
        329.0       327.2       325.2       322.9       320.4    
  17    340.8       340.8       340.7       340.6       340.4       340.2       340.0       339.7       339.3       338.9    
        338.4       337.9       337.3       336.7       335.9       335.1       334.2       333.1       331.9       330.5    
        329.0       327.2       325.2       322.9       320.4    
  18    340.8       340.8       340.7       340.6       340.4       340.2       340.0       339.7       339.3       338.9    
        338.5       337.9       337.4       336.7       335.9       335.1       334.2       333.1       331.9       330.5    
        329.0       327.2       325.2       322.9       320.4    
  19    340.8       340.8       340.7       340.6       340.4       340.2       340.0       339.7       339.3       338.9    
        338.5       338.0       337.4       336.7       336.0       335.1       334.2       333.1       331.9       330.5    
        329.0       327.2       325.2       322.9       320.4    
  20    340.8       340.8       340.7       340.6       340.4       340.2       340.0       339.7       339.3       338.9    
        338.5       338.0       337.4       336.7       336.0       335.1       334.2       333.1       331.9       330.5    
        329.0       327.2       325.2       322.9       320.4    
  21    340.8       340.8       340.7       340.6       340.4       340.2       340.0       339.7       339.3       338.9    
        338.5       338.0       337.4       336.7       336.0       335.1       334.2       333.1       331.9       330.5    
        329.0       327.2       325.2       322.9       320.4    
  22    340.8       340.8       340.7       340.6       340.4       340.2       340.0       339.7       339.4       339.0    
        338.5       338.0       337.4       336.7       336.0       335.1       334.2       333.1       331.9       330.5    
        329.0       327.2       325.2       322.9       320.4    
  23    340.8       340.8       340.7       340.6       340.4       340.2       340.0       339.7       339.4       339.0    
        338.5       338.0       337.4       336.7       336.0       335.2       334.2       333.1       331.9       330.6    
        329.0       327.2       325.2       322.9       320.4    
  24    340.8       340.8       340.7       340.6       340.4       340.2       340.0       339.7       339.4       339.0    
        338.5       338.0       337.4       336.7       336.0       335.2       334.2       333.1       331.9       330.6    
        329.0       327.2       325.2       322.9       320.4    
  25    340.8       340.8       340.7       340.6       340.4       340.2       340.0       339.7       339.4       339.0    
        338.5       338.0       337.4       336.7       336.0       335.2       334.2       333.1       331.9       330.6    
        329.0       327.2       325.2       322.9       320.4    
1
              HEAD IN LAYER   3 AT END OF TIME STEP   6 IN STRESS PERIOD    2
  ---------------------------------------------------------------------------

            1           2           3           4           5           6           7           8           9          10
           11          12          13          14          15          16          17          18          19          20
           21          22          23          24          25
 ........................................................................................................................
   1    337.0       337.0       336.9       336.8       336.7       336.6       336.4       336.3       336.0       335.8    
        335.5       335.2       334.9       334.5       334.1       333.6       333.1       332.5       331.8       331.1    
        330.3       329.4       328.3       327.2       325.9    
   2    337.0       337.0       336.9       336.8       336.7       336.6       336.4       336.3       336.0       335.8    
        335.5       335.2       334.9       334.5       334.1       333.6       333.1       332.5       331.8       331.1    
        330.3       329.4       328.3       327.1       325.9    
   3    337.0       337.0       336.9       336.8       336.7       336.6       336.4       336.2       336.0       335.8    
        335.5       335.2       334.9       334.5       334.0       333.6       333.1       332.5       331.8       331.1    
        330.3       329.4       328.3       327.1       325.9    
   4    337.0       337.0       336.9       336.8       336.7       336.6       336.4       336.2       336.0       335.8    
        335.5       335.2       334.8       334.5       334.0       333.6       333.0       332.5       331.8       331.1    
        330.3       329.3       328.3       327.1       325.9    
   5    337.0       336.9       336.9       336.8       336.7       336.6       336.4       336.2       336.0       335.7    
        335.5       335.2       334.8       334.4       334.0       333.5       333.0       332.4       331.8       331.1    
        330.3       329.3       328.3       327.1       325.9    
   6    337.0       336.9       336.9       336.8       336.7       336.6       336.4       336.2       336.0       335.7    
        335.4       335.1       334.8       334.4       334.0       333.5       333.0       332.4       331.8       331.1    
        330.2       329.3       328.3       327.1       325.8    
   7    337.0       336.9       336.9       336.8       336.7       336.5       336.4       336.2       335.9       335.7    
        335.4       335.1       334.7       334.4       333.9       333.5       333.0       332.4       331.8       331.0    
        330.2       329.3       328.3       327.1       325.8    
   8    336.9       336.9       336.9       336.8       336.7       336.5       336.3       336.1       335.9       335.6    
        335.4       335.0       334.7       334.3       333.9       333.4       332.9       332.4       331.7       331.0    
        330.2       329.3       328.3       327.1       325.8    
   9    336.9       336.9       336.9       336.8       336.7       336.5       336.3       336.1       335.9       335.6    
        335.3       335.0       334.6       334.2       333.8       333.4       332.9       332.3       331.7       331.0    
        330.2       329.3       328.3       327.1       325.8    
  10    336.9       336.9       336.8       336.8       336.6       336.5       336.3       336.1       335.8       335.6    
        335.2       334.9       334.5       334.2       333.8       333.4       332.9       332.3       331.7       331.0    
        330.2       329.3       328.3       327.1       325.8    
  11    336.9       336.9       336.8       336.8       336.6       336.5       336.3       336.1       335.8       335.5    
        335.2       334.8       334.4       334.1       333.7       333.3       332.8       332.3       331.7       331.0    
        330.2       329.3       328.3       327.1       325.8    
  12    336.9       336.9       336.8       336.7       336.6       336.5       336.3       336.1       335.8       335.5    
        335.1       334.7       334.2       333.9       333.6       333.3       332.8       332.3       331.7       331.0    
        330.2       329.3       328.3       327.1       325.8    
  13    336.9       336.9       336.8       336.7       336.6       336.5       336.3       336.0       335.8       335.4    
        335.1       334.6       334.0       333.8       333.6       333.2       332.8       332.3       331.7       331.0    
        330.2       329.3       328.3       327.1       325.8    
  14    336.9       336.9       336.8       336.7       336.6       336.5       336.3       336.1       335.8       335.5    
        335.1       334.7       334.2       333.9       333.6       333.3       332.8       332.3       331.7       331.0    
        330.2       329.3       328.3       327.1       325.8    
  15    336.9       336.9       336.8       336.8       336.6       336.5       336.3       336.1       335.8       335.5    
        335.2       334.8       334.4       334.1       333.7       333.3       332.8       332.3       331.7       331.0    
        330.2       329.3       328.3       327.1       325.8    
  16    336.9       336.9       336.8       336.8       336.6       336.5       336.3       336.1       335.8       335.6    
        335.2       334.9       334.5       334.2       333.8       333.4       332.9       332.3       331.7       331.0    
        330.2       329.3       328.3       327.1       325.8    
  17    336.9       336.9       336.9       336.8       336.7       336.5       336.3       336.1       335.9       335.6    
        335.3       335.0       334.6       334.2       333.8       333.4       332.9       332.3       331.7       331.0    
        330.2       329.3       328.3       327.1       325.8    
  18    336.9       336.9       336.9       336.8       336.7       336.5       336.3       336.1       335.9       335.6    
        335.4       335.0       334.7       334.3       333.9       333.4       332.9       332.4       331.7       331.0    
        330.2       329.3       328.3       327.1       325.8    
  19    337.0       336.9       336.9       336.8       336.7       336.5       336.4       336.2       335.9       335.7    
        335.4       335.1       334.7       334.4       333.9       333.5       333.0       332.4       331.8       331.0    
        330.2       329.3       328.3       327.1       325.8    
  20    337.0       336.9       336.9       336.8       336.7       336.6       336.4       336.2       336.0       335.7    
        335.4       335.1       334.8       334.4       334.0       333.5       333.0       332.4       331.8       331.1    
        330.2       329.3       328.3       327.1       325.8    
  21    337.0       336.9       336.9       336.8       336.7       336.6       336.4       336.2       336.0       335.7    
        335.5       335.2       334.8       334.4       334.0       333.5       333.0       332.4       331.8       331.1    
        330.3       329.3       328.3       327.1       325.9    
  22    337.0       337.0       336.9       336.8       336.7       336.6       336.4       336.2       336.0       335.8    
        335.5       335.2       334.8       334.5       334.0       333.6       333.0       332.5       331.8       331.1    
        330.3       329.3       328.3       327.1       325.9    
  23    337.0       337.0       336.9       336.8       336.7       336.6       336.4       336.2       336.0       335.8    
        335.5       335.2       334.9       334.5       334.0       333.6       333.1       332.5       331.8       331.1    
        330.3       329.4       328.3       327.1       325.9    
  24    337.0       337.0       336.9       336.8       336.7       336.6       336.4       336.3       336.0       335.8    
        335.5       335.2       334.9       334.5       334.1       333.6       333.1       332.5       331.8       331.1    
        330.3       329.4       328.3       327.1       325.9    
  25    337.0       337.0       336.9       336.8       336.7       336.6       336.4       336.3       336.0       335.8    
        335.5       335.2       334.9       334.5       334.1       333.6       333.1       332.5       331.8       331.1    
        330.3       329.4       328.3       327.2       325.9    
1
              HEAD IN LAYER   4 AT END OF TIME STEP   6 IN STRESS PERIOD    2
  ---------------------------------------------------------------------------

            1           2           3           4           5           6           7           8           9          10
           11          12          13          14          15          16          17          18          19          20
           21          22          23          24          25
 ........................................................................................................................
   1    333.1       333.1       333.1       333.1       333.0       332.9       332.9       332.8       332.7       332.6    
        332.5       332.4       332.3       332.2       332.1       332.0       331.9       331.8       331.7       331.6    
        331.6       331.5       331.4       331.4       331.4    
   2    333.1       333.1       333.1       333.1       333.0       332.9       332.9       332.8       332.7       332.6    
        332.5       332.4       332.3       332.2       332.1       332.0       331.9       331.8       331.7       331.6    
        331.6       331.5       331.4       331.4       331.3    
   3    333.1       333.1       333.1       333.0       333.0       332.9       332.9       332.8       332.7       332.6    
        332.5       332.4       332.3       332.2       332.1       332.0       331.9       331.8       331.7       331.6    
        331.5       331.5       331.4       331.4       331.3    
   4    333.1       333.1       333.1       333.0       333.0       332.9       332.8       332.8       332.7       332.6    
        332.5       332.4       332.3       332.2       332.1       332.0       331.9       331.8       331.7       331.6    
        331.5       331.5       331.4       331.4       331.3    
   5    333.1       333.1       333.1       333.0       333.0       332.9       332.8       332.7       332.6       332.5    
        332.4       332.3       332.2       332.1       332.0       331.9       331.8       331.8       331.7       331.6    
        331.5       331.5       331.4       331.4       331.3    
   6    333.1       333.1       333.1       333.0       332.9       332.9       332.8       332.7       332.6       332.5    
        332.4       332.3       332.2       332.1       332.0       331.9       331.8       331.7       331.6       331.6    
        331.5       331.4       331.4       331.3       331.3    
   7    333.1       333.1       333.0       333.0       332.9       332.9       332.8       332.7       332.6       332.4    
        332.3       332.2       332.1       332.0       331.9       331.8       331.8       331.7       331.6       331.5    
        331.5       331.4       331.4       331.3       331.3    
   8    333.1       333.1       333.0       333.0       332.9       332.8       332.7       332.6       332.5       332.4    
        332.3       332.1       332.0       331.9       331.8       331.8       331.7       331.6       331.6       331.5    
        331.5       331.4       331.4       331.3       331.3    
   9    333.1       333.0       333.0       333.0       332.9       332.8       332.7       332.6       332.4       332.3    
        332.2       332.0       331.9       331.8       331.7       331.7       331.7       331.6       331.5       331.5    
        331.4       331.4       331.3       331.3       331.3    
  10    333.0       333.0       333.0       332.9       332.9       332.8       332.7       332.5       332.4       332.2    
        332.0       331.9       331.7       331.7       331.6       331.6       331.6       331.6       331.5       331.5    
        331.4       331.4       331.3       331.3       331.3    
  11    333.0       333.0       333.0       332.9       332.9       332.8       332.6       332.5       332.3       332.1    
        331.9       331.7       331.5       331.5       331.5       331.5       331.5       331.5       331.5       331.4    
        331.4       331.4       331.3       331.3       331.3    
  12    333.0       333.0       333.0       332.9       332.8       332.7       332.6       332.5       332.3       332.1    
        331.8       331.5       331.2       331.3       331.4       331.5       331.5       331.5       331.5       331.4    
        331.4       331.3       331.3       331.3       331.3    
  13    333.0       333.0       333.0       332.9       332.8       332.7       332.6       332.5       332.3       332.0    
        331.7       331.3       330.7       331.1       331.3       331.4       331.5       331.5       331.5       331.4    
        331.4       331.3       331.3       331.3       331.3    
  14    333.0       333.0       333.0       332.9       332.8       332.7       332.6       332.5       332.3       332.1    
        331.8       331.5       331.2       331.3       331.4       331.5       331.5       331.5       331.5       331.4    
        331.4       331.3       331.3       331.3       331.3    
  15    333.0       333.0       333.0       332.9       332.9       332.8       332.6       332.5       332.3       332.1    
        331.9       331.7       331.5       331.5       331.5       331.5       331.5       331.5       331.5       331.4    
        331.4       331.4       331.3       331.3       331.3    
  16    333.0       333.0       333.0       332.9       332.9       332.8       332.7       332.5       332.4       332.2    
        332.0       331.9       331.7       331.7       331.6       331.6       331.6       331.6       331.5       331.5    
        331.4       331.4       331.3       331.3       331.3    
  17    333.1       333.0       333.0       333.0       332.9       332.8       332.7       332.6       332.4       332.3    
        332.2       332.0       331.9       331.8       331.7       331.7       331.7       331.6       331.5       331.5    
        331.4       331.4       331.3       331.3       331.3    
  18    333.1       333.1       333.0       333.0       332.9       332.8       332.7       332.6       332.5       332.4    
        332.3       332.1       332.0       331.9       331.8       331.8       331.7       331.6       331.6       331.5    
        331.5       331.4       331.4       331.3       331.3    
  19    333.1       333.1       333.0       333.0       332.9       332.9       332.8       332.7       332.6       332.4    
        332.3       332.2       332.1       332.0       331.9       331.8       331.8       331.7       331.6       331.5    
        331.5       331.4       331.4       331.3       331.3    
  20    333.1       333.1       333.1       333.0       332.9       332.9       332.8       332.7       332.6       332.5    
        332.4       332.3       332.2       332.1       332.0       331.9       331.8       331.7       331.6       331.6    
        331.5       331.4       331.4       331.3       331.3    
  21    333.1       333.1       333.1       333.0       333.0       332.9       332.8       332.7       332.6       332.5    
        332.4       332.3       332.2       332.1       332.0       331.9       331.8       331.8       331.7       331.6    
        331.5       331.5       331.4       331.4       331.3    
  22    333.1       333.1       333.1       333.0       333.0       332.9       332.8       332.8       332.7       332.6    
        332.5       332.4       332.3       332.2       332.1       332.0       331.9       331.8       331.7       331.6    
        331.5       331.5       331.4       331.4       331.3    
  23    333.1       333.1       333.1       333.0       333.0       332.9       332.9       332.8       332.7       332.6    
        332.5       332.4       332.3       332.2       332.1       332.0       331.9       331.8       331.7       331.6    
        331.5       331.5       331.4       331.4       331.3    
  24    333.1       333.1       333.1       333.1       333.0       332.9       332.9       332.8       332.7       332.6    
        332.5       332.4       332.3       332.2       332.1       332.0       331.9       331.8       331.7       331.6    
        331.6       331.5       331.4       331.4       331.3    
  25    333.1       333.1       333.1       333.1       333.0       332.9       332.9       332.8       332.7       332.6    
        332.5       332.4       332.3       332.2       332.1       332.0       331.9       331.8       331.7       331.6    
        331.6       331.5       331.4       331.4       331.4    
1
              HEAD IN LAYER   5 AT END OF TIME STEP   6 IN STRESS PERIOD    2
  ---------------------------------------------------------------------------

            1           2           3           4           5           6           7           8           9          10
           11          12          13          14          15          16          17          18          19          20
           21          22          23          24          25
 ........................................................................................................................
   1    333.1       333.1       333.1       333.0       333.0       332.9       332.9       332.8       332.7       332.6    
        332.5       332.4       332.3       332.2       332.1       332.0       331.9       331.8       331.7       331.6    
        331.6       331.5       331.4       331.4       331.4    
   2    333.1       333.1       333.1       333.0       333.0       332.9       332.9       332.8       332.7       332.6    
        332.5       332.4       332.3       332.2       332.1       332.0       331.9       331.8       331.7       331.6    
        331.6       331.5       331.4       331.4       331.4    
   3    333.1       333.1       333.1       333.0       333.0       332.9       332.9       332.8       332.7       332.6    
        332.5       332.4       332.3       332.2       332.1       332.0       331.9       331.8       331.7       331.6    
        331.5       331.5       331.4       331.4       331.4    
   4    333.1       333.1       333.1       333.0       333.0       332.9       332.8       332.8       332.7       332.6    
        332.5       332.4       332.3       332.2       332.1       332.0       331.9       331.8       331.7       331.6    
        331.5       331.5       331.4       331.4       331.3    
   5    333.1       333.1       333.1       333.0       333.0       332.9       332.8       332.7       332.6       332.5    
        332.4       332.3       332.2       332.1       332.0       331.9       331.8       331.8       331.7       331.6    
        331.5       331.5       331.4       331.4       331.3    
   6    333.1       333.1       333.0       333.0       332.9       332.9       332.8       332.7       332.6       332.5    
        332.4       332.3       332.2       332.1       332.0       331.9       331.8       331.7       331.6       331.6    
        331.5       331.4       331.4       331.3       331.3    
   7    333.1       333.1       333.0       333.0       332.9       332.8       332.8       332.7       332.6       332.4    
        332.3       332.2       332.1       332.0       331.9       331.8       331.8       331.7       331.6       331.5    
        331.5       331.4       331.4       331.3       331.3    
   8    333.1       333.0       333.0       333.0       332.9       332.8       332.7       332.6       332.5       332.4    
        332.2       332.1       332.0       331.9       331.8       331.8       331.7       331.6       331.6       331.5    
        331.5       331.4       331.4       331.3       331.3    
   9    333.0       333.0       333.0       332.9       332.9       332.8       332.7       332.6       332.4       332.3    
        332.1       332.0       331.9       331.8       331.7       331.7       331.6       331.6       331.5       331.5    
        331.4       331.4       331.3       331.3       331.3    
  10    333.0       333.0       333.0       332.9       332.9       332.8       332.7       332.5       332.4       332.2    
        332.0       331.9       331.7       331.7       331.6       331.6       331.6       331.6       331.5       331.5    
        331.4       331.4       331.3       331.3       331.3    
  11    333.0       333.0       333.0       332.9       332.8       332.7       332.6       332.5       332.3       332.1    
        331.9       331.7       331.5       331.5       331.5       331.5       331.5       331.5       331.5       331.4    
        331.4       331.4       331.3       331.3       331.3    
  12    333.0       333.0       333.0       332.9       332.8       332.7       332.6       332.5       332.3       332.0    
        331.8       331.4       331.0       331.2       331.4       331.4       331.5       331.5       331.5       331.4    
        331.4       331.4       331.3       331.3       331.3    
  13    333.0       333.0       333.0       332.9       332.8       332.7       332.6       332.4       332.3       332.0    
        331.7       331.1       329.6       330.9       331.3       331.4       331.5       331.5       331.5       331.4    
        331.4       331.3       331.3       331.3       331.3    
  14    333.0       333.0       333.0       332.9       332.8       332.7       332.6       332.5       332.3       332.0    
        331.8       331.4       331.0       331.2       331.4       331.4       331.5       331.5       331.5       331.4    
        331.4       331.4       331.3       331.3       331.3    
  15    333.0       333.0       333.0       332.9       332.8       332.7       332.6       332.5       332.3       332.1    
        331.9       331.7       331.5       331.5       331.5       331.5       331.5       331.5       331.5       331.4    
        331.4       331.4       331.3       331.3       331.3    
  16    333.0       333.0       333.0       332.9       332.9       332.8       332.7       332.5       332.4       332.2    
        332.0       331.9       331.7       331.7       331.6       331.6       331.6       331.6       331.5       331.5    
        331.4       331.4       331.3       331.3       331.3    
  17    333.0       333.0       333.0       332.9       332.9       332.8       332.7       332.6       332.4       332.3    
        332.1       332.0       331.9       331.8       331.7       331.7       331.6       331.6       331.5       331.5    
        331.4       331.4       331.3       331.3       331.3    
  18    333.1       333.0       333.0       333.0       332.9       332.8       332.7       332.6       332.5       332.4    
        332.2       332.1       332.0       331.9       331.8       331.8       331.7       331.6       331.6       331.5    
        331.5       331.4       331.4       331.3       331.3    
  19    333.1       333.1       333.0       333.0       332.9       332.8       332.8       332.7       332.6       332.4    
        332.3       332.2       332.1       332.0       331.9       331.8       331.8       331.7       331.6       331.5    
        331.5       331.4       331.4       331.3       331.3    
  20    333.1       333.1       333.0       333.0       332.9       332.9       332.8       332.7       332.6       332.5    
        332.4       332.3       332.2       332.1       332.0       331.9       331.8       331.7       331.6       331.6    
        331.5       331.4       331.4       331.3       331.3    
  21    333.1       333.1       333.1       333.0       333.0       332.9       332.8       332.7       332.6       332.5    
        332.4       332.3       332.2       332.1       332.0       331.9       331.8       331.8       331.7       331.6    
        331.5       331.5       331.4       331.4       331.3    
  22    333.1       333.1       333.1       333.0       333.0       332.9       332.8       332.8       332.7       332.6    
        332.5       332.4       332.3       332.2       332.1       332.0       331.9       331.8       331.7       331.6    
        331.5       331.5       331.4       331.4       331.3    
  23    333.1       333.1       333.1       333.0       333.0       332.9       332.9       332.8       332.7       332.6    
        332.5       332.4       332.3       332.2       332.1       332.0       331.9       331.8       331.7       331.6    
        331.5       331.5       331.4       331.4       331.4    
  24    333.1       333.1       333.1       333.0       333.0       332.9       332.9       332.8       332.7       332.6    
        332.5       332.4       332.3       332.2       332.1       332.0       331.9       331.8       331.7       331.6    
        331.6       331.5       331.4       331.4       331.4    
  25    333.1       333.1       333.1       333.0       333.0       332.9       332.9       332.8       332.7       332.6    
        332.5       332.4       332.3       332.2       332.1       332.0       331.9       331.8       331.7       331.6    
        331.6       331.5       331.4       331.4       331.4    

 HEAD WILL BE SAVED ON UNIT   50 AT END OF TIME STEP   6, STRESS PERIOD    2



          TIME SUMMARY AT END OF TIME STEP   6 IN STRESS PERIOD    2
                    SECONDS     MINUTES      HOURS       DAYS        YEARS
                    -----------------------------------------------------------
   TIME STEP LENGTH 5.78928E+07 9.64881E+05  16081.      670.06      1.8345    
 STRESS PERIOD TIME 1.58431E+08 2.64052E+06  44009.      1833.7      5.0204    
         TOTAL TIME 1.74384E+10 2.90641E+08 4.84401E+06 2.01834E+05  552.59    
1
 
 SOLVING FOR HEAD 
     4 CALLS TO PCG ROUTINE FOR TIME STEP   7 IN STRESS PERIOD    2
    36 TOTAL ITERATIONS

 MAXIMUM HEAD CHANGE FOR EACH ITERATION (1 INDICATES THE FIRST INNER ITERATION):

    HEAD CHANGE    HEAD CHANGE    HEAD CHANGE    HEAD CHANGE    HEAD CHANGE 
   LAYER,ROW,COL  LAYER,ROW,COL  LAYER,ROW,COL  LAYER,ROW,COL  LAYER,ROW,COL
 ---------------------------------------------------------------------------
  1 -0.6940      0 -0.2011      0 -0.8666E-01  0 -0.1218      0  0.6454E-01
   (  2, 25,  4)  (  5,  1, 19)  (  5,  1, 25)  (  2,  1, 16)  (  3,  1, 24)
  0  0.6386E-01  0  0.3906E-01  0  0.1689E-01  0 -0.1397E-01  0  0.1021E-01
   (  3, 15, 24)  (  3, 24, 24)  (  3,  8, 24)  (  3, 25,  2)  (  2,  1, 22)
  0  0.7035E-02  0  0.3948E-02  0 -0.6602E-02  0 -0.4170E-02  0 -0.1800E-02
   (  2,  1, 23)  (  3, 24,  1)  (  3,  3, 24)  (  3,  2, 24)  (  3,  2, 24)
  0 -0.9068E-03  0 -0.4454E-03  0 -0.3522E-03  0  0.2108E-03  0  0.1291E-03
   (  3,  1, 24)  (  3, 25, 23)  (  3, 25, 23)  (  3,  2, 24)  (  3,  2, 24)
  1  0.1266E-01  0  0.4309E-02  0  0.4355E-02  0  0.5153E-02  0 -0.1722E-02
   (  2, 25,  7)  (  5,  1, 18)  (  5,  1, 24)  (  3, 25,  1)  (  3,  1, 23)
  0  0.1387E-02  0 -0.4927E-03  0  0.6699E-03  0  0.5650E-03  0 -0.3872E-03
   (  1, 25, 16)  (  3, 24, 24)  (  3,  1,  1)  (  3, 20,  1)  (  3,  3, 24)
  0 -0.3969E-03  0 -0.1945E-03  0 -0.9517E-04  1 -0.2003E-03  0 -0.8461E-04
   (  3, 25, 24)  (  3,  2, 24)  (  3,  1, 24)  (  2, 25,  4)  (  2, 25,  5)
  1 -0.4880E-04
   (  3, 15,  3)

 MAXIMUM RESIDUAL FOR EACH ITERATION (1 INDICATES THE FIRST INNER ITERATION):

    RESIDUAL       RESIDUAL       RESIDUAL       RESIDUAL       RESIDUAL    
   LAYER,ROW,COL  LAYER,ROW,COL  LAYER,ROW,COL  LAYER,ROW,COL  LAYER,ROW,COL
 ---------------------------------------------------------------------------
  1  -487.7      0  -403.3      0  -373.5      0  -263.3      0  -243.2    
   (  5, 25, 23)  (  2, 25, 24)  (  2, 25, 24)  (  2, 24, 24)  (  2, 24, 24)
  0  -207.4      0  -206.8      0  -179.9      0  -129.8      0  -94.13    
   (  2,  2, 24)  (  2,  2, 24)  (  2,  2, 24)  (  2,  2, 24)  (  2,  1, 24)
  0  -61.69      0  -26.58      0  -17.04      0  -12.37      0  -7.579    
   (  2,  1, 24)  (  2,  1, 24)  (  2,  2, 22)  (  2,  2, 22)  (  2,  2, 23)
  0   4.696      0   4.071      0   3.085      0   2.358      0   1.790    
   (  1,  2, 25)  (  1,  1, 25)  (  1,  1, 25)  (  1,  1, 25)  (  1,  1, 25)
  1   12.69      0   12.49      0   9.658      0  -8.330      0  -5.755    
   (  1,  5, 25)  (  1,  5, 25)  (  1,  3, 25)  (  2,  2, 24)  (  2,  1, 24)
  0   4.773      0   4.169      0   3.333      0   2.839      0   2.361    
   (  2,  2, 21)  (  2,  2, 22)  (  2,  2, 23)  (  2,  2, 24)  (  2,  2, 24)
  0   1.384      0   1.050      0  0.6132      1 -0.5414      0  0.4809    
   (  2,  1, 23)  (  2,  1, 24)  (  2,  2, 21)  (  1,  2, 23)  (  2,  2, 22)
  1  0.4615    
   (  2,  2, 22)



 OUTPUT CONTROL FOR STRESS PERIOD    2   TIME STEP   7
    SAVE BUDGET
    PRINT HEAD FOR ALL LAYERS
    SAVE HEAD FOR ALL LAYERS
 UBDSV1 SAVING "         STORAGE" ON UNIT  53 AT TIME STEP  7, STRESS PERIOD   2
 UBDSV2 SAVING "   CONSTANT HEAD" ON UNIT  53 AT TIME STEP  7, STRESS PERIOD   2
 UBDSV1 SAVING "FLOW RIGHT FACE " ON UNIT  53 AT TIME STEP  7, STRESS PERIOD   2
 UBDSV1 SAVING "FLOW FRONT FACE " ON UNIT  53 AT TIME STEP  7, STRESS PERIOD   2
 UBDSV1 SAVING "FLOW LOWER FACE " ON UNIT  53 AT TIME STEP  7, STRESS PERIOD   2
 UBDSV4 SAVING "           WELLS" ON UNIT  53 AT TIME STEP  7, STRESS PERIOD   2
 UBDSV4 SAVING "   RIVER LEAKAGE" ON UNIT  53 AT TIME STEP  7, STRESS PERIOD   2
 UBDSV3 SAVING "        RECHARGE" ON UNIT  53 AT TIME STEP  7, STRESS PERIOD   2
1
              HEAD IN LAYER   1 AT END OF TIME STEP   7 IN STRESS PERIOD    2
  ---------------------------------------------------------------------------

            1           2           3           4           5           6           7           8           9          10
           11          12          13          14          15          16          17          18          19          20
           21          22          23          24          25
 ........................................................................................................................
   1    340.0       340.0       339.9       339.8       339.6       339.4       339.2       338.9       338.6       338.2    
        337.8       337.3       336.7       336.1       335.4       334.6       333.7       332.6       331.5       330.2    
        328.7       327.0       325.0       322.8       320.1    
   2    340.0       340.0       339.9       339.8       339.6       339.4       339.2       338.9       338.6       338.2    
        337.8       337.3       336.7       336.1       335.4       334.6       333.7       332.6       331.5       330.2    
        328.7       327.0       325.0       322.8       320.1    
   3    340.0       340.0       339.9       339.8       339.6       339.4       339.2       338.9       338.6       338.2    
        337.8       337.3       336.7       336.1       335.4       334.6       333.7       332.6       331.5       330.2    
        328.7       327.0       325.0       322.8       320.1    
   4    340.0       340.0       339.9       339.8       339.6       339.4       339.2       338.9       338.6       338.2    
        337.8       337.3       336.7       336.1       335.4       334.6       333.6       332.6       331.5       330.1    
        328.7       327.0       325.0       322.8       320.1    
   5    340.0       339.9       339.9       339.8       339.6       339.4       339.2       338.9       338.6       338.2    
        337.8       337.3       336.7       336.1       335.4       334.5       333.6       332.6       331.5       330.1    
        328.7       327.0       325.0       322.8       320.1    
   6    340.0       339.9       339.9       339.8       339.6       339.4       339.2       338.9       338.6       338.2    
        337.7       337.2       336.7       336.1       335.3       334.5       333.6       332.6       331.5       330.1    
        328.7       327.0       325.0       322.8       320.1    
   7    340.0       339.9       339.9       339.7       339.6       339.4       339.2       338.9       338.5       338.2    
        337.7       337.2       336.7       336.0       335.3       334.5       333.6       332.6       331.4       330.1    
        328.6       327.0       325.0       322.8       320.1    
   8    340.0       339.9       339.9       339.7       339.6       339.4       339.2       338.9       338.5       338.2    
        337.7       337.2       336.7       336.0       335.3       334.5       333.6       332.6       331.4       330.1    
        328.6       326.9       325.0       322.8       320.1    
   9    340.0       339.9       339.9       339.7       339.6       339.4       339.1       338.9       338.5       338.1    
        337.7       337.2       336.6       336.0       335.3       334.5       333.6       332.6       331.4       330.1    
        328.6       326.9       325.0       322.8       320.1    
  10    340.0       339.9       339.9       339.7       339.6       339.4       339.1       338.9       338.5       338.1    
        337.7       337.2       336.6       336.0       335.3       334.5       333.6       332.6       331.4       330.1    
        328.6       326.9       325.0       322.8       320.1    
  11    340.0       339.9       339.8       339.7       339.6       339.4       339.1       338.8       338.5       338.1    
        337.7       337.2       336.6       336.0       335.3       334.5       333.6       332.6       331.4       330.1    
        328.6       326.9       325.0       322.8       320.1    
  12    340.0       339.9       339.8       339.7       339.6       339.4       339.1       338.8       338.5       338.1    
        337.7       337.2       336.6       336.0       335.3       334.5       333.6       332.6       331.4       330.1    
        328.6       326.9       325.0       322.8       320.1    
  13    340.0       339.9       339.8       339.7       339.6       339.4       339.1       338.8       338.5       338.1    
        337.7       337.2       336.6       336.0       335.3       334.5       333.6       332.6       331.4       330.1    
        328.6       326.9       325.0       322.8       320.1    
  14    340.0       339.9       339.8       339.7       339.6       339.4       339.1       338.8       338.5       338.1    
        337.7       337.2       336.6       336.0       335.3       334.5       333.6       332.6       331.4       330.1    
        328.6       326.9       325.0       322.8       320.1    
  15    340.0       339.9       339.8       339.7       339.6       339.4       339.1       338.8       338.5       338.1    
        337.7       337.2       336.6       336.0       335.3       334.5       333.6       332.6       331.4       330.1    
        328.6       326.9       325.0       322.8       320.1    
  16    340.0       339.9       339.9       339.7       339.6       339.4       339.1       338.9       338.5       338.1    
        337.7       337.2       336.6       336.0       335.3       334.5       333.6       332.6       331.4       330.1    
        328.6       326.9       325.0       322.8       320.1    
  17    340.0       339.9       339.9       339.7       339.6       339.4       339.1       338.9       338.5       338.1    
        337.7       337.2       336.6       336.0       335.3       334.5       333.6       332.6       331.4       330.1    
        328.6       326.9       325.0       322.8       320.1    
  18    340.0       339.9       339.9       339.7       339.6       339.4       339.2       338.9       338.5       338.2    
        337.7       337.2       336.7       336.0       335.3       334.5       333.6       332.6       331.4       330.1    
        328.6       326.9       325.0       322.8       320.1    
  19    340.0       339.9       339.9       339.7       339.6       339.4       339.2       338.9       338.5       338.2    
        337.7       337.2       336.7       336.0       335.3       334.5       333.6       332.6       331.4       330.1    
        328.6       327.0       325.0       322.8       320.1    
  20    340.0       339.9       339.9       339.8       339.6       339.4       339.2       338.9       338.6       338.2    
        337.7       337.2       336.7       336.1       335.3       334.5       333.6       332.6       331.5       330.1    
        328.7       327.0       325.0       322.8       320.1    
  21    340.0       339.9       339.9       339.8       339.6       339.4       339.2       338.9       338.6       338.2    
        337.8       337.3       336.7       336.1       335.4       334.5       333.6       332.6       331.5       330.1    
        328.7       327.0       325.0       322.8       320.1    
  22    340.0       340.0       339.9       339.8       339.6       339.4       339.2       338.9       338.6       338.2    
        337.8       337.3       336.7       336.1       335.4       334.6       333.6       332.6       331.5       330.1    
        328.7       327.0       325.0       322.8       320.1    
  23    340.0       340.0       339.9       339.8       339.6       339.4       339.2       338.9       338.6       338.2    
        337.8       337.3       336.7       336.1       335.4       334.6       333.7       332.6       331.5       330.2    
        328.7       327.0       325.0       322.8       320.1    
  24    340.0       340.0       339.9       339.8       339.6       339.4       339.2       338.9       338.6       338.2    
        337.8       337.3       336.7       336.1       335.4       334.6       333.7       332.6       331.5       330.2    
        328.7       327.0       325.0       322.8       320.1    
  25    340.0       340.0       339.9       339.8       339.6       339.4       339.2       338.9       338.6       338.2    
        337.8       337.3       336.7       336.1       335.4       334.6       333.7       332.6       331.5       330.2    
        328.7       327.0       325.0       322.8       320.1    
1
              HEAD IN LAYER   2 AT END OF TIME STEP   7 IN STRESS PERIOD    2
  ---------------------------------------------------------------------------

            1           2           3           4           5           6           7           8           9          10
           11          12          13          14          15          16          17          18          19          20
           21          22          23          24          25
 ........................................................................................................................
   1    340.0       339.9       339.9       339.7       339.6       339.4       339.2       338.9       338.6       338.2    
        337.7       337.3       336.7       336.1       335.4       334.5       333.6       332.6       331.5       330.1    
        328.7       327.0       325.0       322.8       320.4    
   2    340.0       339.9       339.9       339.7       339.6       339.4       339.2       338.9       338.6       338.2    
        337.7       337.3       336.7       336.1       335.4       334.5       333.6       332.6       331.5       330.1    
        328.7       327.0       325.0       322.8       320.4    
   3    340.0       339.9       339.9       339.7       339.6       339.4       339.2       338.9       338.6       338.2    
        337.7       337.3       336.7       336.1       335.3       334.5       333.6       332.6       331.5       330.1    
        328.7       327.0       325.0       322.8       320.4    
   4    340.0       339.9       339.9       339.7       339.6       339.4       339.2       338.9       338.5       338.2    
        337.7       337.2       336.7       336.1       335.3       334.5       333.6       332.6       331.4       330.1    
        328.6       327.0       325.0       322.8       320.4    
   5    340.0       339.9       339.8       339.7       339.6       339.4       339.2       338.9       338.5       338.2    
        337.7       337.2       336.7       336.0       335.3       334.5       333.6       332.6       331.4       330.1    
        328.6       327.0       325.0       322.8       320.4    
   6    340.0       339.9       339.8       339.7       339.6       339.4       339.1       338.9       338.5       338.2    
        337.7       337.2       336.7       336.0       335.3       334.5       333.6       332.6       331.4       330.1    
        328.6       326.9       325.0       322.8       320.4    
   7    340.0       339.9       339.8       339.7       339.6       339.4       339.1       338.9       338.5       338.1    
        337.7       337.2       336.7       336.0       335.3       334.5       333.6       332.6       331.4       330.1    
        328.6       326.9       325.0       322.8       320.4    
   8    339.9       339.9       339.8       339.7       339.6       339.4       339.1       338.8       338.5       338.1    
        337.7       337.2       336.6       336.0       335.3       334.5       333.6       332.6       331.4       330.1    
        328.6       326.9       325.0       322.8       320.4    
   9    339.9       339.9       339.8       339.7       339.6       339.4       339.1       338.8       338.5       338.1    
        337.7       337.2       336.6       336.0       335.3       334.5       333.6       332.6       331.4       330.1    
        328.6       326.9       325.0       322.8       320.4    
  10    339.9       339.9       339.8       339.7       339.6       339.4       339.1       338.8       338.5       338.1    
        337.7       337.2       336.6       336.0       335.3       334.5       333.6       332.6       331.4       330.1    
        328.6       326.9       325.0       322.8       320.4    
  11    339.9       339.9       339.8       339.7       339.5       339.4       339.1       338.8       338.5       338.1    
        337.7       337.2       336.6       336.0       335.3       334.5       333.6       332.6       331.4       330.1    
        328.6       326.9       325.0       322.8       320.4    
  12    339.9       339.9       339.8       339.7       339.5       339.3       339.1       338.8       338.5       338.1    
        337.7       337.2       336.6       336.0       335.3       334.5       333.6       332.5       331.4       330.1    
        328.6       326.9       325.0       322.8       320.4    
  13    339.9       339.9       339.8       339.7       339.5       339.3       339.1       338.8       338.5       338.1    
        337.6       337.1       336.6       336.0       335.3       334.5       333.6       332.5       331.4       330.1    
        328.6       326.9       325.0       322.8       320.4    
  14    339.9       339.9       339.8       339.7       339.5       339.3       339.1       338.8       338.5       338.1    
        337.7       337.2       336.6       336.0       335.3       334.5       333.6       332.5       331.4       330.1    
        328.6       326.9       325.0       322.8       320.4    
  15    339.9       339.9       339.8       339.7       339.5       339.4       339.1       338.8       338.5       338.1    
        337.7       337.2       336.6       336.0       335.3       334.5       333.6       332.6       331.4       330.1    
        328.6       326.9       325.0       322.8       320.4    
  16    339.9       339.9       339.8       339.7       339.6       339.4       339.1       338.8       338.5       338.1    
        337.7       337.2       336.6       336.0       335.3       334.5       333.6       332.6       331.4       330.1    
        328.6       326.9       325.0       322.8       320.4    
  17    339.9       339.9       339.8       339.7       339.6       339.4       339.1       338.8       338.5       338.1    
        337.7       337.2       336.6       336.0       335.3       334.5       333.6       332.6       331.4       330.1    
        328.6       326.9       325.0       322.8       320.4    
  18    339.9       339.9       339.8       339.7       339.6       339.4       339.1       338.8       338.5       338.1    
        337.7       337.2       336.6       336.0       335.3       334.5       333.6       332.6       331.4       330.1    
        328.6       326.9       325.0       322.8       320.4    
  19    340.0       339.9       339.8       339.7       339.6       339.4       339.1       338.9       338.5       338.1    
        337.7       337.2       336.7       336.0       335.3       334.5       333.6       332.6       331.4       330.1    
        328.6       326.9       325.0       322.8       320.4    
  20    340.0       339.9       339.8       339.7       339.6       339.4       339.1       338.9       338.5       338.2    
        337.7       337.2       336.7       336.0       335.3       334.5       333.6       332.6       331.4       330.1    
        328.6       326.9       325.0       322.8       320.4    
  21    340.0       339.9       339.8       339.7       339.6       339.4       339.2       338.9       338.5       338.2    
        337.7       337.2       336.7       336.0       335.3       334.5       333.6       332.6       331.4       330.1    
        328.6       327.0       325.0       322.8       320.4    
  22    340.0       339.9       339.9       339.7       339.6       339.4       339.2       338.9       338.5       338.2    
        337.7       337.2       336.7       336.1       335.3       334.5       333.6       332.6       331.4       330.1    
        328.6       327.0       325.0       322.8       320.4    
  23    340.0       339.9       339.9       339.7       339.6       339.4       339.2       338.9       338.6       338.2    
        337.7       337.3       336.7       336.1       335.3       334.5       333.6       332.6       331.5       330.1    
        328.7       327.0       325.0       322.8       320.4    
  24    340.0       339.9       339.9       339.7       339.6       339.4       339.2       338.9       338.6       338.2    
        337.7       337.3       336.7       336.1       335.4       334.5       333.6       332.6       331.5       330.1    
        328.7       327.0       325.0       322.8       320.4    
  25    340.0       339.9       339.9       339.7       339.6       339.4       339.2       338.9       338.6       338.2    
        337.7       337.3       336.7       336.1       335.4       334.5       333.6       332.6       331.5       330.1    
        328.7       327.0       325.0       322.8       320.4    
1
              HEAD IN LAYER   3 AT END OF TIME STEP   7 IN STRESS PERIOD    2
  ---------------------------------------------------------------------------

            1           2           3           4           5           6           7           8           9          10
           11          12          13          14          15          16          17          18          19          20
           21          22          23          24          25
 ........................................................................................................................
   1    336.2       336.2       336.1       336.1       336.0       335.8       335.7       335.5       335.3       335.1    
        334.8       334.5       334.2       333.8       333.4       333.0       332.5       331.9       331.3       330.6    
        329.8       328.9       327.9       326.8       325.6    
   2    336.2       336.2       336.1       336.1       336.0       335.8       335.7       335.5       335.3       335.1    
        334.8       334.5       334.2       333.8       333.4       333.0       332.5       331.9       331.3       330.6    
        329.8       328.9       327.9       326.8       325.6    
   3    336.2       336.2       336.1       336.1       336.0       335.8       335.7       335.5       335.3       335.1    
        334.8       334.5       334.2       333.8       333.4       333.0       332.5       331.9       331.3       330.6    
        329.8       328.9       327.9       326.8       325.6    
   4    336.2       336.2       336.1       336.0       335.9       335.8       335.7       335.5       335.3       335.0    
        334.8       334.5       334.2       333.8       333.4       332.9       332.4       331.9       331.3       330.6    
        329.8       328.9       327.9       326.8       325.5    
   5    336.2       336.2       336.1       336.0       335.9       335.8       335.7       335.5       335.3       335.0    
        334.8       334.5       334.1       333.8       333.4       332.9       332.4       331.9       331.2       330.6    
        329.8       328.9       327.9       326.8       325.5    
   6    336.2       336.2       336.1       336.0       335.9       335.8       335.6       335.4       335.2       335.0    
        334.7       334.4       334.1       333.7       333.3       332.9       332.4       331.8       331.2       330.5    
        329.8       328.9       327.9       326.8       325.5    
   7    336.2       336.1       336.1       336.0       335.9       335.8       335.6       335.4       335.2       335.0    
        334.7       334.4       334.1       333.7       333.3       332.9       332.4       331.8       331.2       330.5    
        329.7       328.9       327.9       326.8       325.5    
   8    336.2       336.1       336.1       336.0       335.9       335.8       335.6       335.4       335.2       334.9    
        334.6       334.3       334.0       333.6       333.3       332.8       332.3       331.8       331.2       330.5    
        329.7       328.9       327.9       326.8       325.5    
   9    336.2       336.1       336.1       336.0       335.9       335.7       335.6       335.4       335.1       334.9    
        334.6       334.3       333.9       333.6       333.2       332.8       332.3       331.8       331.2       330.5    
        329.7       328.9       327.9       326.7       325.5    
  10    336.2       336.1       336.1       336.0       335.9       335.7       335.6       335.3       335.1       334.8    
        334.5       334.2       333.9       333.5       333.1       332.7       332.3       331.7       331.2       330.5    
        329.7       328.8       327.9       326.7       325.5    
  11    336.1       336.1       336.1       336.0       335.9       335.7       335.5       335.3       335.1       334.8    
        334.5       334.1       333.7       333.4       333.1       332.7       332.2       331.7       331.1       330.5    
        329.7       328.8       327.9       326.7       325.5    
  12    336.1       336.1       336.1       336.0       335.9       335.7       335.5       335.3       335.0       334.7    
        334.4       334.0       333.6       333.3       333.0       332.6       332.2       331.7       331.1       330.5    
        329.7       328.8       327.9       326.7       325.5    
  13    336.1       336.1       336.1       336.0       335.9       335.7       335.5       335.3       335.0       334.7    
        334.3       333.9       333.3       333.2       333.0       332.6       332.2       331.7       331.1       330.5    
        329.7       328.8       327.8       326.7       325.5    
  14    336.1       336.1       336.1       336.0       335.9       335.7       335.5       335.3       335.0       334.7    
        334.4       334.0       333.6       333.3       333.0       332.6       332.2       331.7       331.1       330.5    
        329.7       328.8       327.9       326.7       325.5    
  15    336.1       336.1       336.1       336.0       335.9       335.7       335.5       335.3       335.1       334.8    
        334.5       334.1       333.7       333.4       333.1       332.7       332.2       331.7       331.1       330.5    
        329.7       328.8       327.9       326.7       325.5    
  16    336.2       336.1       336.1       336.0       335.9       335.7       335.6       335.3       335.1       334.8    
        334.5       334.2       333.9       333.5       333.1       332.7       332.3       331.7       331.2       330.5    
        329.7       328.8       327.9       326.7       325.5    
  17    336.2       336.1       336.1       336.0       335.9       335.7       335.6       335.4       335.1       334.9    
        334.6       334.3       333.9       333.6       333.2       332.8       332.3       331.8       331.2       330.5    
        329.7       328.9       327.9       326.7       325.5    
  18    336.2       336.1       336.1       336.0       335.9       335.8       335.6       335.4       335.2       334.9    
        334.6       334.3       334.0       333.6       333.3       332.8       332.3       331.8       331.2       330.5    
        329.7       328.9       327.9       326.8       325.5    
  19    336.2       336.1       336.1       336.0       335.9       335.8       335.6       335.4       335.2       335.0    
        334.7       334.4       334.1       333.7       333.3       332.9       332.4       331.8       331.2       330.5    
        329.7       328.9       327.9       326.8       325.5    
  20    336.2       336.2       336.1       336.0       335.9       335.8       335.6       335.4       335.2       335.0    
        334.7       334.4       334.1       333.7       333.3       332.9       332.4       331.8       331.2       330.5    
        329.8       328.9       327.9       326.8       325.5    
  21    336.2       336.2       336.1       336.0       335.9       335.8       335.7       335.5       335.3       335.0    
        334.8       334.5       334.1       333.8       333.4       332.9       332.4       331.9       331.2       330.6    
        329.8       328.9       327.9       326.8       325.5    
  22    336.2       336.2       336.1       336.0       335.9       335.8       335.7       335.5       335.3       335.0    
        334.8       334.5       334.2       333.8       333.4       332.9       332.4       331.9       331.3       330.6    
        329.8       328.9       327.9       326.8       325.5    
  23    336.2       336.2       336.1       336.1       336.0       335.8       335.7       335.5       335.3       335.1    
        334.8       334.5       334.2       333.8       333.4       333.0       332.5       331.9       331.3       330.6    
        329.8       328.9       327.9       326.8       325.6    
  24    336.2       336.2       336.1       336.1       336.0       335.8       335.7       335.5       335.3       335.1    
        334.8       334.5       334.2       333.8       333.4       333.0       332.5       331.9       331.3       330.6    
        329.8       328.9       327.9       326.8       325.6    
  25    336.2       336.2       336.1       336.1       336.0       335.8       335.7       335.5       335.3       335.1    
        334.8       334.5       334.2       333.8       333.4       333.0       332.5       331.9       331.3       330.6    
        329.8       328.9       327.9       326.8       325.6    
1
              HEAD IN LAYER   4 AT END OF TIME STEP   7 IN STRESS PERIOD    2
  ---------------------------------------------------------------------------

            1           2           3           4           5           6           7           8           9          10
           11          12          13          14          15          16          17          18          19          20
           21          22          23          24          25
 ........................................................................................................................
   1    332.5       332.4       332.4       332.4       332.3       332.3       332.2       332.1       332.0       332.0    
        331.9       331.8       331.7       331.6       331.5       331.4       331.3       331.2       331.1       331.0    
        330.9       330.9       330.8       330.8       330.7    
   2    332.4       332.4       332.4       332.4       332.3       332.3       332.2       332.1       332.0       332.0    
        331.9       331.8       331.7       331.6       331.5       331.4       331.3       331.2       331.1       331.0    
        330.9       330.9       330.8       330.8       330.7    
   3    332.4       332.4       332.4       332.4       332.3       332.3       332.2       332.1       332.0       331.9    
        331.8       331.7       331.6       331.6       331.5       331.4       331.3       331.2       331.1       331.0    
        330.9       330.9       330.8       330.8       330.7    
   4    332.4       332.4       332.4       332.4       332.3       332.2       332.2       332.1       332.0       331.9    
        331.8       331.7       331.6       331.5       331.4       331.3       331.2       331.2       331.1       331.0    
        330.9       330.9       330.8       330.8       330.7    
   5    332.4       332.4       332.4       332.3       332.3       332.2       332.2       332.1       332.0       331.9    
        331.8       331.7       331.6       331.5       331.4       331.3       331.2       331.1       331.1       331.0    
        330.9       330.8       330.8       330.7       330.7    
   6    332.4       332.4       332.4       332.3       332.3       332.2       332.1       332.0       331.9       331.8    
        331.7       331.6       331.5       331.4       331.3       331.3       331.2       331.1       331.0       331.0    
        330.9       330.8       330.8       330.7       330.7    
   7    332.4       332.4       332.4       332.3       332.3       332.2       332.1       332.0       331.9       331.8    
        331.7       331.6       331.5       331.4       331.3       331.2       331.1       331.1       331.0       330.9    
        330.9       330.8       330.8       330.7       330.7    
   8    332.4       332.4       332.3       332.3       332.2       332.2       332.1       332.0       331.8       331.7    
        331.6       331.5       331.4       331.3       331.2       331.1       331.1       331.0       331.0       330.9    
        330.8       330.8       330.7       330.7       330.7    
   9    332.4       332.4       332.3       332.3       332.2       332.1       332.0       331.9       331.8       331.6    
        331.5       331.4       331.2       331.2       331.1       331.1       331.0       331.0       330.9       330.9    
        330.8       330.8       330.7       330.7       330.7    
  10    332.4       332.3       332.3       332.3       332.2       332.1       332.0       331.9       331.7       331.6    
        331.4       331.2       331.1       331.0       331.0       331.0       331.0       330.9       330.9       330.8    
        330.8       330.8       330.7       330.7       330.7    
  11    332.4       332.3       332.3       332.2       332.2       332.1       332.0       331.8       331.7       331.5    
        331.3       331.0       330.9       330.8       330.9       330.9       330.9       330.9       330.9       330.8    
        330.8       330.7       330.7       330.7       330.7    
  12    332.4       332.3       332.3       332.2       332.2       332.1       331.9       331.8       331.6       331.4    
        331.1       330.8       330.5       330.6       330.7       330.8       330.9       330.9       330.8       330.8    
        330.8       330.7       330.7       330.7       330.6    
  13    332.4       332.3       332.3       332.2       332.2       332.1       331.9       331.8       331.6       331.4    
        331.0       330.6       330.1       330.4       330.7       330.8       330.8       330.8       330.8       330.8    
        330.8       330.7       330.7       330.7       330.6    
  14    332.4       332.3       332.3       332.2       332.2       332.1       331.9       331.8       331.6       331.4    
        331.1       330.8       330.5       330.6       330.7       330.8       330.9       330.9       330.8       330.8    
        330.8       330.7       330.7       330.7       330.6    
  15    332.4       332.3       332.3       332.2       332.2       332.1       332.0       331.8       331.7       331.5    
        331.3       331.0       330.9       330.8       330.9       330.9       330.9       330.9       330.9       330.8    
        330.8       330.7       330.7       330.7       330.7    
  16    332.4       332.3       332.3       332.3       332.2       332.1       332.0       331.9       331.7       331.6    
        331.4       331.2       331.1       331.0       331.0       331.0       331.0       330.9       330.9       330.8    
        330.8       330.8       330.7       330.7       330.7    
  17    332.4       332.4       332.3       332.3       332.2       332.1       332.0       331.9       331.8       331.6    
        331.5       331.4       331.2       331.2       331.1       331.1       331.0       331.0       330.9       330.9    
        330.8       330.8       330.7       330.7       330.7    
  18    332.4       332.4       332.3       332.3       332.2       332.2       332.1       332.0       331.8       331.7    
        331.6       331.5       331.4       331.3       331.2       331.1       331.1       331.0       331.0       330.9    
        330.8       330.8       330.7       330.7       330.7    
  19    332.4       332.4       332.4       332.3       332.3       332.2       332.1       332.0       331.9       331.8    
        331.7       331.6       331.5       331.4       331.3       331.2       331.1       331.1       331.0       330.9    
        330.9       330.8       330.8       330.7       330.7    
  20    332.4       332.4       332.4       332.3       332.3       332.2       332.1       332.0       331.9       331.8    
        331.7       331.6       331.5       331.4       331.3       331.3       331.2       331.1       331.0       331.0    
        330.9       330.8       330.8       330.7       330.7    
  21    332.4       332.4       332.4       332.3       332.3       332.2       332.2       332.1       332.0       331.9    
        331.8       331.7       331.6       331.5       331.4       331.3       331.2       331.1       331.1       331.0    
        330.9       330.8       330.8       330.7       330.7    
  22    332.4       332.4       332.4       332.4       332.3       332.2       332.2       332.1       332.0       331.9    
        331.8       331.7       331.6       331.5       331.4       331.3       331.2       331.2       331.1       331.0    
        330.9       330.9       330.8       330.8       330.7    
  23    332.4       332.4       332.4       332.4       332.3       332.3       332.2       332.1       332.0       331.9    
        331.8       331.7       331.6       331.6       331.5       331.4       331.3       331.2       331.1       331.0    
        330.9       330.9       330.8       330.8       330.7    
  24    332.4       332.4       332.4       332.4       332.3       332.3       332.2       332.1       332.0       332.0    
        331.9       331.8       331.7       331.6       331.5       331.4       331.3       331.2       331.1       331.0    
        330.9       330.9       330.8       330.8       330.7    
  25    332.5       332.4       332.4       332.4       332.3       332.3       332.2       332.1       332.0       332.0    
        331.9       331.8       331.7       331.6       331.5       331.4       331.3       331.2       331.1       331.0    
        330.9       330.9       330.8       330.8       330.7    
1
              HEAD IN LAYER   5 AT END OF TIME STEP   7 IN STRESS PERIOD    2
  ---------------------------------------------------------------------------

            1           2           3           4           5           6           7           8           9          10
           11          12          13          14          15          16          17          18          19          20
           21          22          23          24          25
 ........................................................................................................................
   1    332.4       332.4       332.4       332.4       332.3       332.3       332.2       332.1       332.0       332.0    
        331.9       331.8       331.7       331.6       331.5       331.4       331.3       331.2       331.1       331.0    
        330.9       330.9       330.8       330.8       330.8    
   2    332.4       332.4       332.4       332.4       332.3       332.3       332.2       332.1       332.0       331.9    
        331.9       331.8       331.7       331.6       331.5       331.4       331.3       331.2       331.1       331.0    
        330.9       330.9       330.8       330.8       330.8    
   3    332.4       332.4       332.4       332.4       332.3       332.3       332.2       332.1       332.0       331.9    
        331.8       331.7       331.6       331.5       331.4       331.4       331.3       331.2       331.1       331.0    
        330.9       330.9       330.8       330.8       330.8    
   4    332.4       332.4       332.4       332.3       332.3       332.2       332.2       332.1       332.0       331.9    
        331.8       331.7       331.6       331.5       331.4       331.3       331.2       331.2       331.1       331.0    
        330.9       330.9       330.8       330.8       330.7    
   5    332.4       332.4       332.4       332.3       332.3       332.2       332.1       332.1       332.0       331.9    
        331.8       331.7       331.6       331.5       331.4       331.3       331.2       331.1       331.1       331.0    
        330.9       330.8       330.8       330.8       330.7    
   6    332.4       332.4       332.4       332.3       332.3       332.2       332.1       332.0       331.9       331.8    
        331.7       331.6       331.5       331.4       331.3       331.3       331.2       331.1       331.0       331.0    
        330.9       330.8       330.8       330.7       330.7    
   7    332.4       332.4       332.3       332.3       332.2       332.2       332.1       332.0       331.9       331.8    
        331.7       331.6       331.4       331.4       331.3       331.2       331.1       331.1       331.0       330.9    
        330.9       330.8       330.8       330.7       330.7    
   8    332.4       332.4       332.3       332.3       332.2       332.1       332.1       331.9       331.8       331.7    
        331.6       331.5       331.4       331.3       331.2       331.1       331.1       331.0       331.0       330.9    
        330.8       330.8       330.7       330.7       330.7    
   9    332.4       332.3       332.3       332.3       332.2       332.1       332.0       331.9       331.8       331.6    
        331.5       331.4       331.2       331.2       331.1       331.1       331.0       331.0       330.9       330.9    
        330.8       330.8       330.7       330.7       330.7    
  10    332.4       332.3       332.3       332.3       332.2       332.1       332.0       331.9       331.7       331.5    
        331.4       331.2       331.1       331.0       331.0       331.0       331.0       330.9       330.9       330.8    
        330.8       330.8       330.7       330.7       330.7    
  11    332.3       332.3       332.3       332.2       332.2       332.1       332.0       331.8       331.6       331.5    
        331.2       331.0       330.8       330.8       330.9       330.9       330.9       330.9       330.9       330.8    
        330.8       330.7       330.7       330.7       330.7    
  12    332.3       332.3       332.3       332.2       332.2       332.1       331.9       331.8       331.6       331.4    
        331.1       330.7       330.3       330.5       330.7       330.8       330.8       330.9       330.8       330.8    
        330.8       330.7       330.7       330.7       330.7    
  13    332.3       332.3       332.3       332.2       332.2       332.1       331.9       331.8       331.6       331.3    
        331.0       330.4       328.9       330.2       330.6       330.8       330.8       330.8       330.8       330.8    
        330.8       330.7       330.7       330.7       330.7    
  14    332.3       332.3       332.3       332.2       332.2       332.1       331.9       331.8       331.6       331.4    
        331.1       330.7       330.3       330.5       330.7       330.8       330.8       330.9       330.8       330.8    
        330.8       330.7       330.7       330.7       330.7    
  15    332.3       332.3       332.3       332.2       332.2       332.1       332.0       331.8       331.6       331.5    
        331.2       331.0       330.8       330.8       330.9       330.9       330.9       330.9       330.9       330.8    
        330.8       330.7       330.7       330.7       330.7    
  16    332.4       332.3       332.3       332.3       332.2       332.1       332.0       331.9       331.7       331.5    
        331.4       331.2       331.1       331.0       331.0       331.0       331.0       330.9       330.9       330.8    
        330.8       330.8       330.7       330.7       330.7    
  17    332.4       332.3       332.3       332.3       332.2       332.1       332.0       331.9       331.8       331.6    
        331.5       331.4       331.2       331.2       331.1       331.1       331.0       331.0       330.9       330.9    
        330.8       330.8       330.7       330.7       330.7    
  18    332.4       332.4       332.3       332.3       332.2       332.1       332.1       331.9       331.8       331.7    
        331.6       331.5       331.4       331.3       331.2       331.1       331.1       331.0       331.0       330.9    
        330.8       330.8       330.7       330.7       330.7    
  19    332.4       332.4       332.3       332.3       332.2       332.2       332.1       332.0       331.9       331.8    
        331.7       331.6       331.4       331.4       331.3       331.2       331.1       331.1       331.0       330.9    
        330.9       330.8       330.8       330.7       330.7    
  20    332.4       332.4       332.4       332.3       332.3       332.2       332.1       332.0       331.9       331.8    
        331.7       331.6       331.5       331.4       331.3       331.3       331.2       331.1       331.0       331.0    
        330.9       330.8       330.8       330.7       330.7    
  21    332.4       332.4       332.4       332.3       332.3       332.2       332.1       332.1       332.0       331.9    
        331.8       331.7       331.6       331.5       331.4       331.3       331.2       331.1       331.1       331.0    
        330.9       330.8       330.8       330.8       330.7    
  22    332.4       332.4       332.4       332.3       332.3       332.2       332.2       332.1       332.0       331.9    
        331.8       331.7       331.6       331.5       331.4       331.3       331.2       331.2       331.1       331.0    
        330.9       330.9       330.8       330.8       330.7    
  23    332.4       332.4       332.4       332.4       332.3       332.3       332.2       332.1       332.0       331.9    
        331.8       331.7       331.6       331.5       331.4       331.4       331.3       331.2       331.1       331.0    
        330.9       330.9       330.8       330.8       330.8    
  24    332.4       332.4       332.4       332.4       332.3       332.3       332.2       332.1       332.0       331.9    
        331.9       331.8       331.7       331.6       331.5       331.4       331.3       331.2       331.1       331.0    
        330.9       330.9       330.8       330.8       330.8    
  25    332.4       332.4       332.4       332.4       332.3       332.3       332.2       332.1       332.0       332.0    
        331.9       331.8       331.7       331.6       331.5       331.4       331.3       331.2       331.1       331.0    
        330.9       330.9       330.8       330.8       330.8    

 HEAD WILL BE SAVED ON UNIT   50 AT END OF TIME STEP   7, STRESS PERIOD    2



          TIME SUMMARY AT END OF TIME STEP   7 IN STRESS PERIOD    2
                    SECONDS     MINUTES      HOURS       DAYS        YEARS
                    -----------------------------------------------------------
   TIME STEP LENGTH 8.68393E+07 1.44732E+06  24122.      1005.1      2.7518    
 STRESS PERIOD TIME 2.45270E+08 4.08784E+06  68131.      2838.8      7.7721    
         TOTAL TIME 1.75253E+10 2.92088E+08 4.86813E+06 2.02839E+05  555.34    
1
 
 SOLVING FOR HEAD 
     4 CALLS TO PCG ROUTINE FOR TIME STEP   8 IN STRESS PERIOD    2
    36 TOTAL ITERATIONS

 MAXIMUM HEAD CHANGE FOR EACH ITERATION (1 INDICATES THE FIRST INNER ITERATION):

    HEAD CHANGE    HEAD CHANGE    HEAD CHANGE    HEAD CHANGE    HEAD CHANGE 
   LAYER,ROW,COL  LAYER,ROW,COL  LAYER,ROW,COL  LAYER,ROW,COL  LAYER,ROW,COL
 ---------------------------------------------------------------------------
  1 -0.3837      0 -0.1246      0 -0.6283E-01  0 -0.7435E-01  0  0.3642E-01
   (  2, 25,  4)  (  5,  1, 18)  (  5,  1, 25)  (  2,  1, 14)  (  3,  1, 24)
  0  0.3562E-01  0  0.2948E-01  0 -0.1388E-01  0 -0.1213E-01  0  0.7643E-02
   (  3,  1, 24)  (  3, 24, 24)  (  3,  4,  1)  (  3, 22,  1)  (  2,  1, 21)
  0  0.5365E-02  0  0.2844E-02  0 -0.4940E-02  0 -0.2684E-02  0 -0.1133E-02
   (  2,  1, 22)  (  2,  1, 23)  (  3,  4, 24)  (  3,  2, 24)  (  3,  2, 24)
  0 -0.8634E-03  0  0.3220E-03  0  0.1106E-03  0  0.1966E-03  0  0.1601E-03
   (  3,  1, 24)  (  2, 24,  5)  (  3, 17, 24)  (  3, 25,  1)  (  3,  2, 24)
  1  0.8849E-02  0  0.2854E-02  0  0.3074E-02  0  0.2947E-02  0  0.1255E-02
   (  2, 25,  6)  (  5,  1, 17)  (  5,  1, 24)  (  3,  1,  4)  (  2,  1, 16)
  0  0.8592E-03  0  0.5223E-03  0  0.6849E-03  0  0.4079E-03  0 -0.3616E-03
   (  1, 25, 14)  (  3, 18,  1)  (  3,  1,  1)  (  3, 21,  1)  (  3,  3, 24)
  0 -0.2326E-03  0 -0.1239E-03  0  0.8505E-04  1 -0.1954E-03  0 -0.5904E-04
   (  3, 25, 24)  (  3,  2, 24)  (  1,  2, 21)  (  2, 25,  3)  (  2, 25,  4)
  1 -0.3201E-04
   (  3, 16,  4)

 MAXIMUM RESIDUAL FOR EACH ITERATION (1 INDICATES THE FIRST INNER ITERATION):

    RESIDUAL       RESIDUAL       RESIDUAL       RESIDUAL       RESIDUAL    
   LAYER,ROW,COL  LAYER,ROW,COL  LAYER,ROW,COL  LAYER,ROW,COL  LAYER,ROW,COL
 ---------------------------------------------------------------------------
  1  -279.1      0  -232.8      0  -220.9      0  -170.3      0  -144.8    
   (  5, 25, 23)  (  2, 25, 24)  (  2, 25, 24)  (  2, 25, 24)  (  2, 24, 24)
  0  -127.8      0  -131.8      0  -120.9      0  -93.05      0  -63.98    
   (  2,  3, 24)  (  2,  2, 24)  (  2,  2, 24)  (  2,  2, 24)  (  2,  1, 24)
  0  -45.43      0  -22.17      0  -13.54      0  -9.562      0  -6.198    
   (  2,  1, 24)  (  2,  1, 24)  (  2,  2, 21)  (  2,  2, 22)  (  2,  2, 23)
  0   2.960      0   2.624      0   2.435      0   1.963      0   1.302    
   (  1,  2, 25)  (  1,  1, 25)  (  1,  1, 25)  (  1,  1, 25)  (  1,  1, 25)
  1   8.105      0   7.014      0   5.646      0  -4.917      0   3.455    
   (  5, 25, 22)  (  1,  5, 25)  (  1,  3, 25)  (  2,  2, 24)  (  2,  2, 20)
  0   3.451      0   3.084      0   2.678      0   2.235      0   1.608    
   (  2,  2, 21)  (  2,  2, 22)  (  2,  2, 23)  (  2,  2, 23)  (  2,  2, 24)
  0   1.099      0  0.6907      0  0.5361      1  0.3762      0  0.3200    
   (  2,  1, 23)  (  2,  1, 24)  (  2,  2, 21)  (  2,  2, 21)  (  2,  2, 22)
  1  0.3114    
   (  2,  2, 22)



 OUTPUT CONTROL FOR STRESS PERIOD    2   TIME STEP   8
    SAVE BUDGET
    PRINT HEAD FOR ALL LAYERS
    SAVE HEAD FOR ALL LAYERS
 UBDSV1 SAVING "         STORAGE" ON UNIT  53 AT TIME STEP  8, STRESS PERIOD   2
 UBDSV2 SAVING "   CONSTANT HEAD" ON UNIT  53 AT TIME STEP  8, STRESS PERIOD   2
 UBDSV1 SAVING "FLOW RIGHT FACE " ON UNIT  53 AT TIME STEP  8, STRESS PERIOD   2
 UBDSV1 SAVING "FLOW FRONT FACE " ON UNIT  53 AT TIME STEP  8, STRESS PERIOD   2
 UBDSV1 SAVING "FLOW LOWER FACE " ON UNIT  53 AT TIME STEP  8, STRESS PERIOD   2
 UBDSV4 SAVING "           WELLS" ON UNIT  53 AT TIME STEP  8, STRESS PERIOD   2
 UBDSV4 SAVING "   RIVER LEAKAGE" ON UNIT  53 AT TIME STEP  8, STRESS PERIOD   2
 UBDSV3 SAVING "        RECHARGE" ON UNIT  53 AT TIME STEP  8, STRESS PERIOD   2
1
              HEAD IN LAYER   1 AT END OF TIME STEP   8 IN STRESS PERIOD    2
  ---------------------------------------------------------------------------

            1           2           3           4           5           6           7           8           9          10
           11          12          13          14          15          16          17          18          19          20
           21          22          23          24          25
 ........................................................................................................................
   1    339.5       339.4       339.4       339.3       339.1       338.9       338.7       338.4       338.1       337.7    
        337.3       336.8       336.3       335.7       335.0       334.2       333.3       332.3       331.2       329.9    
        328.5       326.8       324.9       322.7       320.1    
   2    339.5       339.4       339.4       339.3       339.1       338.9       338.7       338.4       338.1       337.7    
        337.3       336.8       336.3       335.7       335.0       334.2       333.3       332.3       331.2       329.9    
        328.5       326.8       324.9       322.7       320.1    
   3    339.5       339.4       339.4       339.3       339.1       338.9       338.7       338.4       338.1       337.7    
        337.3       336.8       336.3       335.7       335.0       334.2       333.3       332.3       331.2       329.9    
        328.5       326.8       324.9       322.7       320.1    
   4    339.5       339.4       339.4       339.2       339.1       338.9       338.7       338.4       338.1       337.7    
        337.3       336.8       336.3       335.7       335.0       334.2       333.3       332.3       331.2       329.9    
        328.5       326.8       324.9       322.7       320.1    
   5    339.5       339.4       339.4       339.2       339.1       338.9       338.7       338.4       338.1       337.7    
        337.3       336.8       336.3       335.7       335.0       334.2       333.3       332.3       331.2       329.9    
        328.4       326.8       324.9       322.7       320.1    
   6    339.5       339.4       339.3       339.2       339.1       338.9       338.7       338.4       338.1       337.7    
        337.3       336.8       336.3       335.7       335.0       334.2       333.3       332.3       331.2       329.9    
        328.4       326.8       324.9       322.7       320.1    
   7    339.5       339.4       339.3       339.2       339.1       338.9       338.7       338.4       338.1       337.7    
        337.3       336.8       336.3       335.6       334.9       334.2       333.3       332.3       331.2       329.9    
        328.4       326.8       324.9       322.7       320.1    
   8    339.4       339.4       339.3       339.2       339.1       338.9       338.7       338.4       338.1       337.7    
        337.3       336.8       336.2       335.6       334.9       334.2       333.3       332.3       331.2       329.9    
        328.4       326.8       324.9       322.7       320.1    
   9    339.4       339.4       339.3       339.2       339.1       338.9       338.6       338.4       338.0       337.7    
        337.3       336.8       336.2       335.6       334.9       334.1       333.3       332.3       331.2       329.9    
        328.4       326.8       324.9       322.7       320.1    
  10    339.4       339.4       339.3       339.2       339.1       338.9       338.6       338.4       338.0       337.7    
        337.2       336.8       336.2       335.6       334.9       334.1       333.3       332.3       331.1       329.9    
        328.4       326.8       324.9       322.7       320.1    
  11    339.4       339.4       339.3       339.2       339.1       338.9       338.6       338.4       338.0       337.7    
        337.2       336.7       336.2       335.6       334.9       334.1       333.2       332.3       331.1       329.9    
        328.4       326.8       324.9       322.7       320.1    
  12    339.4       339.4       339.3       339.2       339.1       338.9       338.6       338.4       338.0       337.7    
        337.2       336.7       336.2       335.6       334.9       334.1       333.2       332.3       331.1       329.9    
        328.4       326.8       324.9       322.7       320.1    
  13    339.4       339.4       339.3       339.2       339.1       338.9       338.6       338.4       338.0       337.6    
        337.2       336.7       336.2       335.6       334.9       334.1       333.2       332.3       331.1       329.9    
        328.4       326.8       324.9       322.7       320.1    
  14    339.4       339.4       339.3       339.2       339.1       338.9       338.6       338.4       338.0       337.7    
        337.2       336.7       336.2       335.6       334.9       334.1       333.2       332.3       331.1       329.9    
        328.4       326.8       324.9       322.7       320.1    
  15    339.4       339.4       339.3       339.2       339.1       338.9       338.6       338.4       338.0       337.7    
        337.2       336.7       336.2       335.6       334.9       334.1       333.2       332.3       331.1       329.9    
        328.4       326.8       324.9       322.7       320.1    
  16    339.4       339.4       339.3       339.2       339.1       338.9       338.6       338.4       338.0       337.7    
        337.2       336.8       336.2       335.6       334.9       334.1       333.3       332.3       331.1       329.9    
        328.4       326.8       324.9       322.7       320.1    
  17    339.4       339.4       339.3       339.2       339.1       338.9       338.6       338.4       338.0       337.7    
        337.3       336.8       336.2       335.6       334.9       334.1       333.3       332.3       331.2       329.9    
        328.4       326.8       324.9       322.7       320.1    
  18    339.4       339.4       339.3       339.2       339.1       338.9       338.7       338.4       338.1       337.7    
        337.3       336.8       336.2       335.6       334.9       334.2       333.3       332.3       331.2       329.9    
        328.4       326.8       324.9       322.7       320.1    
  19    339.5       339.4       339.3       339.2       339.1       338.9       338.7       338.4       338.1       337.7    
        337.3       336.8       336.3       335.6       334.9       334.2       333.3       332.3       331.2       329.9    
        328.4       326.8       324.9       322.7       320.1    
  20    339.5       339.4       339.3       339.2       339.1       338.9       338.7       338.4       338.1       337.7    
        337.3       336.8       336.3       335.7       335.0       334.2       333.3       332.3       331.2       329.9    
        328.4       326.8       324.9       322.7       320.1    
  21    339.5       339.4       339.4       339.2       339.1       338.9       338.7       338.4       338.1       337.7    
        337.3       336.8       336.3       335.7       335.0       334.2       333.3       332.3       331.2       329.9    
        328.4       326.8       324.9       322.7       320.1    
  22    339.5       339.4       339.4       339.2       339.1       338.9       338.7       338.4       338.1       337.7    
        337.3       336.8       336.3       335.7       335.0       334.2       333.3       332.3       331.2       329.9    
        328.5       326.8       324.9       322.7       320.1    
  23    339.5       339.4       339.4       339.3       339.1       338.9       338.7       338.4       338.1       337.7    
        337.3       336.8       336.3       335.7       335.0       334.2       333.3       332.3       331.2       329.9    
        328.5       326.8       324.9       322.7       320.1    
  24    339.5       339.4       339.4       339.3       339.1       338.9       338.7       338.4       338.1       337.7    
        337.3       336.8       336.3       335.7       335.0       334.2       333.3       332.3       331.2       329.9    
        328.5       326.8       324.9       322.7       320.1    
  25    339.5       339.4       339.4       339.3       339.1       338.9       338.7       338.4       338.1       337.7    
        337.3       336.8       336.3       335.7       335.0       334.2       333.3       332.3       331.2       329.9    
        328.5       326.8       324.9       322.7       320.1    
1
              HEAD IN LAYER   2 AT END OF TIME STEP   8 IN STRESS PERIOD    2
  ---------------------------------------------------------------------------

            1           2           3           4           5           6           7           8           9          10
           11          12          13          14          15          16          17          18          19          20
           21          22          23          24          25
 ........................................................................................................................
   1    339.4       339.4       339.3       339.2       339.1       338.9       338.7       338.4       338.1       337.7    
        337.3       336.8       336.3       335.7       335.0       334.2       333.3       332.3       331.2       329.9    
        328.4       326.8       324.9       322.7       320.4    
   2    339.4       339.4       339.3       339.2       339.1       338.9       338.7       338.4       338.1       337.7    
        337.3       336.8       336.3       335.7       335.0       334.2       333.3       332.3       331.2       329.9    
        328.4       326.8       324.9       322.7       320.4    
   3    339.4       339.4       339.3       339.2       339.1       338.9       338.7       338.4       338.1       337.7    
        337.3       336.8       336.3       335.7       335.0       334.2       333.3       332.3       331.2       329.9    
        328.4       326.8       324.9       322.7       320.4    
   4    339.4       339.4       339.3       339.2       339.1       338.9       338.7       338.4       338.1       337.7    
        337.3       336.8       336.3       335.6       335.0       334.2       333.3       332.3       331.2       329.9    
        328.4       326.8       324.9       322.7       320.4    
   5    339.4       339.4       339.3       339.2       339.1       338.9       338.7       338.4       338.1       337.7    
        337.3       336.8       336.3       335.6       334.9       334.2       333.3       332.3       331.2       329.9    
        328.4       326.8       324.9       322.7       320.4    
   6    339.4       339.4       339.3       339.2       339.1       338.9       338.6       338.4       338.1       337.7    
        337.3       336.8       336.2       335.6       334.9       334.2       333.3       332.3       331.2       329.9    
        328.4       326.8       324.9       322.7       320.4    
   7    339.4       339.4       339.3       339.2       339.1       338.9       338.6       338.4       338.0       337.7    
        337.3       336.8       336.2       335.6       334.9       334.1       333.3       332.3       331.2       329.9    
        328.4       326.8       324.9       322.7       320.4    
   8    339.4       339.4       339.3       339.2       339.1       338.9       338.6       338.4       338.0       337.7    
        337.2       336.8       336.2       335.6       334.9       334.1       333.3       332.3       331.1       329.9    
        328.4       326.8       324.9       322.7       320.4    
   9    339.4       339.4       339.3       339.2       339.0       338.9       338.6       338.3       338.0       337.7    
        337.2       336.7       336.2       335.6       334.9       334.1       333.2       332.3       331.1       329.9    
        328.4       326.8       324.9       322.7       320.4    
  10    339.4       339.4       339.3       339.2       339.0       338.9       338.6       338.3       338.0       337.6    
        337.2       336.7       336.2       335.6       334.9       334.1       333.2       332.3       331.1       329.9    
        328.4       326.8       324.9       322.7       320.4    
  11    339.4       339.4       339.3       339.2       339.0       338.8       338.6       338.3       338.0       337.6    
        337.2       336.7       336.2       335.6       334.9       334.1       333.2       332.2       331.1       329.9    
        328.4       326.8       324.9       322.7       320.4    
  12    339.4       339.4       339.3       339.2       339.0       338.8       338.6       338.3       338.0       337.6    
        337.2       336.7       336.2       335.6       334.9       334.1       333.2       332.2       331.1       329.9    
        328.4       326.8       324.9       322.7       320.4    
  13    339.4       339.4       339.3       339.2       339.0       338.8       338.6       338.3       338.0       337.6    
        337.2       336.7       336.2       335.6       334.9       334.1       333.2       332.2       331.1       329.9    
        328.4       326.8       324.9       322.7       320.4    
  14    339.4       339.4       339.3       339.2       339.0       338.8       338.6       338.3       338.0       337.6    
        337.2       336.7       336.2       335.6       334.9       334.1       333.2       332.2       331.1       329.9    
        328.4       326.8       324.9       322.7       320.4    
  15    339.4       339.4       339.3       339.2       339.0       338.8       338.6       338.3       338.0       337.6    
        337.2       336.7       336.2       335.6       334.9       334.1       333.2       332.2       331.1       329.9    
        328.4       326.8       324.9       322.7       320.4    
  16    339.4       339.4       339.3       339.2       339.0       338.9       338.6       338.3       338.0       337.6    
        337.2       336.7       336.2       335.6       334.9       334.1       333.2       332.3       331.1       329.9    
        328.4       326.8       324.9       322.7       320.4    
  17    339.4       339.4       339.3       339.2       339.0       338.9       338.6       338.3       338.0       337.7    
        337.2       336.7       336.2       335.6       334.9       334.1       333.2       332.3       331.1       329.9    
        328.4       326.8       324.9       322.7       320.4    
  18    339.4       339.4       339.3       339.2       339.1       338.9       338.6       338.4       338.0       337.7    
        337.2       336.8       336.2       335.6       334.9       334.1       333.3       332.3       331.1       329.9    
        328.4       326.8       324.9       322.7       320.4    
  19    339.4       339.4       339.3       339.2       339.1       338.9       338.6       338.4       338.0       337.7    
        337.3       336.8       336.2       335.6       334.9       334.1       333.3       332.3       331.2       329.9    
        328.4       326.8       324.9       322.7       320.4    
  20    339.4       339.4       339.3       339.2       339.1       338.9       338.6       338.4       338.1       337.7    
        337.3       336.8       336.2       335.6       334.9       334.2       333.3       332.3       331.2       329.9    
        328.4       326.8       324.9       322.7       320.4    
  21    339.4       339.4       339.3       339.2       339.1       338.9       338.7       338.4       338.1       337.7    
        337.3       336.8       336.3       335.6       334.9       334.2       333.3       332.3       331.2       329.9    
        328.4       326.8       324.9       322.7       320.4    
  22    339.4       339.4       339.3       339.2       339.1       338.9       338.7       338.4       338.1       337.7    
        337.3       336.8       336.3       335.6       335.0       334.2       333.3       332.3       331.2       329.9    
        328.4       326.8       324.9       322.7       320.4    
  23    339.4       339.4       339.3       339.2       339.1       338.9       338.7       338.4       338.1       337.7    
        337.3       336.8       336.3       335.7       335.0       334.2       333.3       332.3       331.2       329.9    
        328.4       326.8       324.9       322.7       320.4    
  24    339.4       339.4       339.3       339.2       339.1       338.9       338.7       338.4       338.1       337.7    
        337.3       336.8       336.3       335.7       335.0       334.2       333.3       332.3       331.2       329.9    
        328.4       326.8       324.9       322.7       320.4    
  25    339.4       339.4       339.3       339.2       339.1       338.9       338.7       338.4       338.1       337.7    
        337.3       336.8       336.3       335.7       335.0       334.2       333.3       332.3       331.2       329.9    
        328.4       326.8       324.9       322.7       320.4    
1
              HEAD IN LAYER   3 AT END OF TIME STEP   8 IN STRESS PERIOD    2
  ---------------------------------------------------------------------------

            1           2           3           4           5           6           7           8           9          10
           11          12          13          14          15          16          17          18          19          20
           21          22          23          24          25
 ........................................................................................................................
   1    335.7       335.7       335.7       335.6       335.5       335.4       335.2       335.1       334.9       334.6    
        334.4       334.1       333.8       333.4       333.0       332.6       332.1       331.6       331.0       330.3    
        329.5       328.7       327.7       326.6       325.4    
   2    335.7       335.7       335.7       335.6       335.5       335.4       335.2       335.1       334.9       334.6    
        334.4       334.1       333.8       333.4       333.0       332.6       332.1       331.6       331.0       330.3    
        329.5       328.6       327.7       326.6       325.4    
   3    335.7       335.7       335.7       335.6       335.5       335.4       335.2       335.1       334.9       334.6    
        334.4       334.1       333.8       333.4       333.0       332.6       332.1       331.6       330.9       330.3    
        329.5       328.6       327.7       326.6       325.4    
   4    335.7       335.7       335.7       335.6       335.5       335.4       335.2       335.0       334.8       334.6    
        334.4       334.1       333.7       333.4       333.0       332.6       332.1       331.5       330.9       330.3    
        329.5       328.6       327.7       326.6       325.4    
   5    335.7       335.7       335.7       335.6       335.5       335.4       335.2       335.0       334.8       334.6    
        334.3       334.0       333.7       333.4       333.0       332.5       332.1       331.5       330.9       330.2    
        329.5       328.6       327.7       326.6       325.4    
   6    335.7       335.7       335.6       335.6       335.5       335.3       335.2       335.0       334.8       334.6    
        334.3       334.0       333.7       333.3       332.9       332.5       332.0       331.5       330.9       330.2    
        329.5       328.6       327.7       326.6       325.4    
   7    335.7       335.7       335.6       335.6       335.5       335.3       335.2       335.0       334.8       334.5    
        334.3       334.0       333.6       333.3       332.9       332.5       332.0       331.5       330.9       330.2    
        329.5       328.6       327.6       326.5       325.3    
   8    335.7       335.7       335.6       335.5       335.4       335.3       335.1       335.0       334.7       334.5    
        334.2       333.9       333.6       333.2       332.9       332.4       332.0       331.5       330.9       330.2    
        329.4       328.6       327.6       326.5       325.3    
   9    335.7       335.7       335.6       335.5       335.4       335.3       335.1       334.9       334.7       334.4    
        334.2       333.9       333.5       333.2       332.8       332.4       331.9       331.4       330.8       330.2    
        329.4       328.6       327.6       326.5       325.3    
  10    335.7       335.7       335.6       335.5       335.4       335.3       335.1       334.9       334.7       334.4    
        334.1       333.8       333.4       333.1       332.8       332.4       331.9       331.4       330.8       330.2    
        329.4       328.6       327.6       326.5       325.3    
  11    335.7       335.7       335.6       335.5       335.4       335.3       335.1       334.9       334.6       334.4    
        334.0       333.7       333.3       333.0       332.7       332.3       331.9       331.4       330.8       330.2    
        329.4       328.6       327.6       326.5       325.3    
  12    335.7       335.7       335.6       335.5       335.4       335.3       335.1       334.9       334.6       334.3    
        334.0       333.6       333.1       332.9       332.6       332.3       331.9       331.4       330.8       330.1    
        329.4       328.6       327.6       326.5       325.3    
  13    335.7       335.7       335.6       335.5       335.4       335.3       335.1       334.9       334.6       334.3    
        333.9       333.5       332.9       332.8       332.6       332.2       331.8       331.4       330.8       330.1    
        329.4       328.6       327.6       326.5       325.3    
  14    335.7       335.7       335.6       335.5       335.4       335.3       335.1       334.9       334.6       334.3    
        334.0       333.6       333.1       332.9       332.6       332.3       331.9       331.4       330.8       330.1    
        329.4       328.6       327.6       326.5       325.3    
  15    335.7       335.7       335.6       335.5       335.4       335.3       335.1       334.9       334.6       334.4    
        334.0       333.7       333.3       333.0       332.7       332.3       331.9       331.4       330.8       330.2    
        329.4       328.6       327.6       326.5       325.3    
  16    335.7       335.7       335.6       335.5       335.4       335.3       335.1       334.9       334.7       334.4    
        334.1       333.8       333.4       333.1       332.8       332.4       331.9       331.4       330.8       330.2    
        329.4       328.6       327.6       326.5       325.3    
  17    335.7       335.7       335.6       335.5       335.4       335.3       335.1       334.9       334.7       334.4    
        334.2       333.9       333.5       333.2       332.8       332.4       331.9       331.4       330.8       330.2    
        329.4       328.6       327.6       326.5       325.3    
  18    335.7       335.7       335.6       335.5       335.4       335.3       335.1       335.0       334.7       334.5    
        334.2       333.9       333.6       333.2       332.9       332.4       332.0       331.5       330.9       330.2    
        329.4       328.6       327.6       326.5       325.3    
  19    335.7       335.7       335.6       335.6       335.5       335.3       335.2       335.0       334.8       334.5    
        334.3       334.0       333.6       333.3       332.9       332.5       332.0       331.5       330.9       330.2    
        329.5       328.6       327.6       326.5       325.3    
  20    335.7       335.7       335.6       335.6       335.5       335.3       335.2       335.0       334.8       334.6    
        334.3       334.0       333.7       333.3       332.9       332.5       332.0       331.5       330.9       330.2    
        329.5       328.6       327.7       326.6       325.4    
  21    335.7       335.7       335.7       335.6       335.5       335.4       335.2       335.0       334.8       334.6    
        334.3       334.0       333.7       333.4       333.0       332.5       332.1       331.5       330.9       330.2    
        329.5       328.6       327.7       326.6       325.4    
  22    335.7       335.7       335.7       335.6       335.5       335.4       335.2       335.0       334.8       334.6    
        334.4       334.1       333.7       333.4       333.0       332.6       332.1       331.5       330.9       330.3    
        329.5       328.6       327.7       326.6       325.4    
  23    335.7       335.7       335.7       335.6       335.5       335.4       335.2       335.1       334.9       334.6    
        334.4       334.1       333.8       333.4       333.0       332.6       332.1       331.6       330.9       330.3    
        329.5       328.6       327.7       326.6       325.4    
  24    335.7       335.7       335.7       335.6       335.5       335.4       335.2       335.1       334.9       334.6    
        334.4       334.1       333.8       333.4       333.0       332.6       332.1       331.6       331.0       330.3    
        329.5       328.6       327.7       326.6       325.4    
  25    335.7       335.7       335.7       335.6       335.5       335.4       335.2       335.1       334.9       334.6    
        334.4       334.1       333.8       333.4       333.0       332.6       332.1       331.6       331.0       330.3    
        329.5       328.7       327.7       326.6       325.4    
1
              HEAD IN LAYER   4 AT END OF TIME STEP   8 IN STRESS PERIOD    2
  ---------------------------------------------------------------------------

            1           2           3           4           5           6           7           8           9          10
           11          12          13          14          15          16          17          18          19          20
           21          22          23          24          25
 ........................................................................................................................
   1    332.0       332.0       332.0       332.0       331.9       331.9       331.8       331.7       331.7       331.6    
        331.5       331.4       331.3       331.2       331.1       331.0       330.9       330.8       330.7       330.7    
        330.6       330.5       330.5       330.4       330.4    
   2    332.0       332.0       332.0       332.0       331.9       331.9       331.8       331.7       331.6       331.6    
        331.5       331.4       331.3       331.2       331.1       331.0       330.9       330.8       330.7       330.6    
        330.6       330.5       330.5       330.4       330.4    
   3    332.0       332.0       332.0       332.0       331.9       331.9       331.8       331.7       331.6       331.5    
        331.5       331.4       331.3       331.2       331.1       331.0       330.9       330.8       330.7       330.6    
        330.6       330.5       330.4       330.4       330.4    
   4    332.0       332.0       332.0       332.0       331.9       331.8       331.8       331.7       331.6       331.5    
        331.4       331.3       331.2       331.1       331.0       331.0       330.9       330.8       330.7       330.6    
        330.6       330.5       330.4       330.4       330.4    
   5    332.0       332.0       332.0       331.9       331.9       331.8       331.8       331.7       331.6       331.5    
        331.4       331.3       331.2       331.1       331.0       330.9       330.8       330.8       330.7       330.6    
        330.5       330.5       330.4       330.4       330.4    
   6    332.0       332.0       332.0       331.9       331.9       331.8       331.7       331.6       331.5       331.4    
        331.3       331.2       331.1       331.0       331.0       330.9       330.8       330.7       330.7       330.6    
        330.5       330.5       330.4       330.4       330.3    
   7    332.0       332.0       331.9       331.9       331.8       331.8       331.7       331.6       331.5       331.4    
        331.3       331.2       331.1       331.0       330.9       330.8       330.8       330.7       330.6       330.6    
        330.5       330.4       330.4       330.4       330.3    
   8    332.0       332.0       331.9       331.9       331.8       331.7       331.7       331.6       331.4       331.3    
        331.2       331.1       331.0       330.9       330.8       330.8       330.7       330.6       330.6       330.5    
        330.5       330.4       330.4       330.3       330.3    
   9    332.0       332.0       331.9       331.9       331.8       331.7       331.6       331.5       331.4       331.2    
        331.1       331.0       330.9       330.8       330.7       330.7       330.6       330.6       330.6       330.5    
        330.5       330.4       330.4       330.3       330.3    
  10    332.0       331.9       331.9       331.9       331.8       331.7       331.6       331.5       331.3       331.2    
        331.0       330.8       330.7       330.6       330.6       330.6       330.6       330.6       330.5       330.5    
        330.4       330.4       330.4       330.3       330.3    
  11    332.0       331.9       331.9       331.8       331.8       331.7       331.6       331.4       331.3       331.1    
        330.9       330.6       330.5       330.4       330.5       330.5       330.5       330.5       330.5       330.5    
        330.4       330.4       330.3       330.3       330.3    
  12    331.9       331.9       331.9       331.8       331.8       331.7       331.5       331.4       331.2       331.0    
        330.7       330.4       330.1       330.2       330.3       330.4       330.5       330.5       330.5       330.4    
        330.4       330.4       330.3       330.3       330.3    
  13    331.9       331.9       331.9       331.8       331.8       331.7       331.5       331.4       331.2       331.0    
        330.6       330.2       329.7       330.0       330.3       330.4       330.5       330.5       330.5       330.4    
        330.4       330.4       330.3       330.3       330.3    
  14    331.9       331.9       331.9       331.8       331.8       331.7       331.5       331.4       331.2       331.0    
        330.7       330.4       330.1       330.2       330.3       330.4       330.5       330.5       330.5       330.4    
        330.4       330.4       330.3       330.3       330.3    
  15    332.0       331.9       331.9       331.8       331.8       331.7       331.6       331.4       331.3       331.1    
        330.9       330.6       330.5       330.4       330.5       330.5       330.5       330.5       330.5       330.5    
        330.4       330.4       330.3       330.3       330.3    
  16    332.0       331.9       331.9       331.9       331.8       331.7       331.6       331.5       331.3       331.2    
        331.0       330.8       330.7       330.6       330.6       330.6       330.6       330.6       330.5       330.5    
        330.4       330.4       330.4       330.3       330.3    
  17    332.0       332.0       331.9       331.9       331.8       331.7       331.6       331.5       331.4       331.2    
        331.1       331.0       330.9       330.8       330.7       330.7       330.6       330.6       330.6       330.5    
        330.5       330.4       330.4       330.3       330.3    
  18    332.0       332.0       331.9       331.9       331.8       331.7       331.7       331.6       331.4       331.3    
        331.2       331.1       331.0       330.9       330.8       330.8       330.7       330.6       330.6       330.5    
        330.5       330.4       330.4       330.3       330.3    
  19    332.0       332.0       331.9       331.9       331.8       331.8       331.7       331.6       331.5       331.4    
        331.3       331.2       331.1       331.0       330.9       330.8       330.8       330.7       330.6       330.6    
        330.5       330.4       330.4       330.4       330.3    
  20    332.0       332.0       332.0       331.9       331.9       331.8       331.7       331.6       331.5       331.4    
        331.3       331.2       331.1       331.0       331.0       330.9       330.8       330.7       330.7       330.6    
        330.5       330.5       330.4       330.4       330.3    
  21    332.0       332.0       332.0       331.9       331.9       331.8       331.8       331.7       331.6       331.5    
        331.4       331.3       331.2       331.1       331.0       330.9       330.8       330.8       330.7       330.6    
        330.5       330.5       330.4       330.4       330.4    
  22    332.0       332.0       332.0       332.0       331.9       331.8       331.8       331.7       331.6       331.5    
        331.4       331.3       331.2       331.1       331.0       331.0       330.9       330.8       330.7       330.6    
        330.6       330.5       330.4       330.4       330.4    
  23    332.0       332.0       332.0       332.0       331.9       331.9       331.8       331.7       331.6       331.5    
        331.5       331.4       331.3       331.2       331.1       331.0       330.9       330.8       330.7       330.6    
        330.6       330.5       330.4       330.4       330.4    
  24    332.0       332.0       332.0       332.0       331.9       331.9       331.8       331.7       331.6       331.6    
        331.5       331.4       331.3       331.2       331.1       331.0       330.9       330.8       330.7       330.6    
        330.6       330.5       330.5       330.4       330.4    
  25    332.0       332.0       332.0       332.0       331.9       331.9       331.8       331.7       331.7       331.6    
        331.5       331.4       331.3       331.2       331.1       331.0       330.9       330.8       330.7       330.7    
        330.6       330.5       330.5       330.4       330.4    
1
              HEAD IN LAYER   5 AT END OF TIME STEP   8 IN STRESS PERIOD    2
  ---------------------------------------------------------------------------

            1           2           3           4           5           6           7           8           9          10
           11          12          13          14          15          16          17          18          19          20
           21          22          23          24          25
 ........................................................................................................................
   1    332.0       332.0       332.0       332.0       331.9       331.9       331.8       331.7       331.6       331.6    
        331.5       331.4       331.3       331.2       331.1       331.0       330.9       330.8       330.7       330.7    
        330.6       330.5       330.5       330.4       330.4    
   2    332.0       332.0       332.0       332.0       331.9       331.9       331.8       331.7       331.6       331.6    
        331.5       331.4       331.3       331.2       331.1       331.0       330.9       330.8       330.7       330.6    
        330.6       330.5       330.5       330.4       330.4    
   3    332.0       332.0       332.0       332.0       331.9       331.8       331.8       331.7       331.6       331.5    
        331.4       331.3       331.3       331.2       331.1       331.0       330.9       330.8       330.7       330.6    
        330.6       330.5       330.5       330.4       330.4    
   4    332.0       332.0       332.0       331.9       331.9       331.8       331.8       331.7       331.6       331.5    
        331.4       331.3       331.2       331.1       331.0       331.0       330.9       330.8       330.7       330.6    
        330.6       330.5       330.4       330.4       330.4    
   5    332.0       332.0       332.0       331.9       331.9       331.8       331.7       331.7       331.6       331.5    
        331.4       331.3       331.2       331.1       331.0       330.9       330.8       330.8       330.7       330.6    
        330.5       330.5       330.4       330.4       330.4    
   6    332.0       332.0       332.0       331.9       331.9       331.8       331.7       331.6       331.5       331.4    
        331.3       331.2       331.1       331.0       331.0       330.9       330.8       330.7       330.7       330.6    
        330.5       330.5       330.4       330.4       330.4    
   7    332.0       332.0       331.9       331.9       331.8       331.8       331.7       331.6       331.5       331.4    
        331.3       331.2       331.1       331.0       330.9       330.8       330.8       330.7       330.6       330.6    
        330.5       330.4       330.4       330.4       330.3    
   8    332.0       332.0       331.9       331.9       331.8       331.7       331.7       331.5       331.4       331.3    
        331.2       331.1       331.0       330.9       330.8       330.8       330.7       330.6       330.6       330.5    
        330.5       330.4       330.4       330.4       330.3    
   9    332.0       331.9       331.9       331.9       331.8       331.7       331.6       331.5       331.4       331.2    
        331.1       331.0       330.9       330.8       330.7       330.7       330.6       330.6       330.6       330.5    
        330.5       330.4       330.4       330.3       330.3    
  10    331.9       331.9       331.9       331.8       331.8       331.7       331.6       331.5       331.3       331.2    
        331.0       330.8       330.7       330.6       330.6       330.6       330.6       330.6       330.5       330.5    
        330.4       330.4       330.4       330.3       330.3    
  11    331.9       331.9       331.9       331.8       331.8       331.7       331.6       331.4       331.3       331.1    
        330.8       330.6       330.4       330.4       330.5       330.5       330.5       330.5       330.5       330.5    
        330.4       330.4       330.3       330.3       330.3    
  12    331.9       331.9       331.9       331.8       331.8       331.7       331.5       331.4       331.2       331.0    
        330.7       330.3       329.9       330.2       330.3       330.4       330.5       330.5       330.5       330.4    
        330.4       330.4       330.3       330.3       330.3    
  13    331.9       331.9       331.9       331.8       331.7       331.6       331.5       331.4       331.2       330.9    
        330.6       330.0       328.5       329.8       330.2       330.4       330.5       330.5       330.5       330.4    
        330.4       330.4       330.3       330.3       330.3    
  14    331.9       331.9       331.9       331.8       331.8       331.7       331.5       331.4       331.2       331.0    
        330.7       330.3       329.9       330.2       330.3       330.4       330.5       330.5       330.5       330.4    
        330.4       330.4       330.3       330.3       330.3    
  15    331.9       331.9       331.9       331.8       331.8       331.7       331.6       331.4       331.3       331.1    
        330.8       330.6       330.4       330.4       330.5       330.5       330.5       330.5       330.5       330.5    
        330.4       330.4       330.3       330.3       330.3    
  16    331.9       331.9       331.9       331.8       331.8       331.7       331.6       331.5       331.3       331.2    
        331.0       330.8       330.7       330.6       330.6       330.6       330.6       330.6       330.5       330.5    
        330.4       330.4       330.4       330.3       330.3    
  17    332.0       331.9       331.9       331.9       331.8       331.7       331.6       331.5       331.4       331.2    
        331.1       331.0       330.9       330.8       330.7       330.7       330.6       330.6       330.6       330.5    
        330.5       330.4       330.4       330.3       330.3    
  18    332.0       332.0       331.9       331.9       331.8       331.7       331.7       331.5       331.4       331.3    
        331.2       331.1       331.0       330.9       330.8       330.8       330.7       330.6       330.6       330.5    
        330.5       330.4       330.4       330.4       330.3    
  19    332.0       332.0       331.9       331.9       331.8       331.8       331.7       331.6       331.5       331.4    
        331.3       331.2       331.1       331.0       330.9       330.8       330.8       330.7       330.6       330.6    
        330.5       330.4       330.4       330.4       330.3    
  20    332.0       332.0       332.0       331.9       331.9       331.8       331.7       331.6       331.5       331.4    
        331.3       331.2       331.1       331.0       331.0       330.9       330.8       330.7       330.7       330.6    
        330.5       330.5       330.4       330.4       330.4    
  21    332.0       332.0       332.0       331.9       331.9       331.8       331.7       331.7       331.6       331.5    
        331.4       331.3       331.2       331.1       331.0       330.9       330.8       330.8       330.7       330.6    
        330.5       330.5       330.4       330.4       330.4    
  22    332.0       332.0       332.0       331.9       331.9       331.8       331.8       331.7       331.6       331.5    
        331.4       331.3       331.2       331.1       331.0       331.0       330.9       330.8       330.7       330.6    
        330.6       330.5       330.4       330.4       330.4    
  23    332.0       332.0       332.0       332.0       331.9       331.8       331.8       331.7       331.6       331.5    
        331.4       331.3       331.3       331.2       331.1       331.0       330.9       330.8       330.7       330.6    
        330.6       330.5       330.5       330.4       330.4    
  24    332.0       332.0       332.0       332.0       331.9       331.9       331.8       331.7       331.6       331.6    
        331.5       331.4       331.3       331.2       331.1       331.0       330.9       330.8       330.7       330.6    
        330.6       330.5       330.5       330.4       330.4    
  25    332.0       332.0       332.0       332.0       331.9       331.9       331.8       331.7       331.6       331.6    
        331.5       331.4       331.3       331.2       331.1       331.0       330.9       330.8       330.7       330.7    
        330.6       330.5       330.5       330.4       330.4    

 HEAD WILL BE SAVED ON UNIT   50 AT END OF TIME STEP   8, STRESS PERIOD    2



          TIME SUMMARY AT END OF TIME STEP   8 IN STRESS PERIOD    2
                    SECONDS     MINUTES      HOURS       DAYS        YEARS
                    -----------------------------------------------------------
   TIME STEP LENGTH 1.30259E+08 2.17098E+06  36183.      1507.6      4.1277    
 STRESS PERIOD TIME 3.75529E+08 6.25882E+06 1.04314E+05  4346.4      11.900    
         TOTAL TIME 1.76555E+10 2.94259E+08 4.90431E+06 2.04346E+05  559.47    
1
 
 SOLVING FOR HEAD 
     3 CALLS TO PCG ROUTINE FOR TIME STEP   9 IN STRESS PERIOD    2
    30 TOTAL ITERATIONS

 MAXIMUM HEAD CHANGE FOR EACH ITERATION (1 INDICATES THE FIRST INNER ITERATION):

    HEAD CHANGE    HEAD CHANGE    HEAD CHANGE    HEAD CHANGE    HEAD CHANGE 
   LAYER,ROW,COL  LAYER,ROW,COL  LAYER,ROW,COL  LAYER,ROW,COL  LAYER,ROW,COL
 ---------------------------------------------------------------------------
  1 -0.1633      0 -0.5816E-01  0 -0.3449E-01  0 -0.3285E-01  0  0.1598E-01
   (  2, 25,  5)  (  5,  1, 17)  (  5,  1, 25)  (  2,  1, 12)  (  3,  1, 24)
  0  0.1601E-01  0  0.1287E-01  0 -0.1034E-01  0 -0.5695E-02  0  0.5058E-02
   (  3,  1, 24)  (  3, 24, 24)  (  3,  6,  1)  (  3, 22,  1)  (  2,  1, 21)
  0  0.2241E-02  0 -0.2056E-02  0 -0.1944E-02  0 -0.1227E-02  0 -0.6636E-03
   (  2,  1, 22)  (  3,  5, 24)  (  3,  4, 24)  (  3,  3, 24)  (  3,  2, 24)
  0 -0.5078E-03  0 -0.1249E-03  0  0.9818E-04  1  0.4721E-02  0  0.1521E-02
   (  3,  1, 24)  (  2,  1, 24)  (  3, 24,  8)  (  2, 25,  7)  (  5,  1, 17)
  0  0.1607E-02  0  0.1282E-02  0  0.8109E-03  0  0.4594E-03  0  0.4635E-03
   (  5,  1, 23)  (  2,  1, 10)  (  2,  1, 16)  (  2, 25, 10)  (  3, 20,  1)
  0  0.4374E-03  0 -0.1890E-03  0 -0.2221E-03  0 -0.7929E-04  1 -0.7217E-04
   (  3,  1,  1)  (  3,  4, 24)  (  3,  4, 24)  (  3,  3, 24)  (  2, 25,  8)

 MAXIMUM RESIDUAL FOR EACH ITERATION (1 INDICATES THE FIRST INNER ITERATION):

    RESIDUAL       RESIDUAL       RESIDUAL       RESIDUAL       RESIDUAL    
   LAYER,ROW,COL  LAYER,ROW,COL  LAYER,ROW,COL  LAYER,ROW,COL  LAYER,ROW,COL
 ---------------------------------------------------------------------------
  1  -121.5      0  -102.5      0  -100.1      0  -83.86      0  -67.05    
   (  5, 25, 23)  (  2, 25, 24)  (  2, 25, 24)  (  2, 25, 24)  (  2, 25, 24)
  0  -60.44      0  -62.45      0  -59.62      0  -49.59      0  -31.71    
   (  2,  4, 24)  (  2,  3, 24)  (  2,  2, 24)  (  2,  2, 24)  (  2,  1, 24)
  0  -24.63      0  -11.60      0  -7.681      0  -5.507      0  -3.183    
   (  2,  1, 24)  (  2,  1, 24)  (  2,  3, 22)  (  2,  2, 22)  (  2,  2, 23)
  0  -1.682      0   1.281      0   1.248      1   3.428      0   3.368    
   (  2,  2, 23)  (  1,  2, 25)  (  1,  1, 25)  (  1,  3, 25)  (  1,  3, 25)
  0   2.854      0   2.391      0   1.803      0   1.678      0   1.634    
   (  1,  2, 25)  (  1,  1, 25)  (  1,  1, 25)  (  2,  2, 20)  (  2,  2, 21)
  0   1.480      0   1.202      0  0.8256      0  0.6019      1 -0.4857    
   (  2,  2, 23)  (  2,  2, 23)  (  2,  1, 22)  (  2,  1, 23)  (  1,  2, 22)



 OUTPUT CONTROL FOR STRESS PERIOD    2   TIME STEP   9
    SAVE BUDGET
    PRINT HEAD FOR ALL LAYERS
    SAVE HEAD FOR ALL LAYERS
 UBDSV1 SAVING "         STORAGE" ON UNIT  53 AT TIME STEP  9, STRESS PERIOD   2
 UBDSV2 SAVING "   CONSTANT HEAD" ON UNIT  53 AT TIME STEP  9, STRESS PERIOD   2
 UBDSV1 SAVING "FLOW RIGHT FACE " ON UNIT  53 AT TIME STEP  9, STRESS PERIOD   2
 UBDSV1 SAVING "FLOW FRONT FACE " ON UNIT  53 AT TIME STEP  9, STRESS PERIOD   2
 UBDSV1 SAVING "FLOW LOWER FACE " ON UNIT  53 AT TIME STEP  9, STRESS PERIOD   2
 UBDSV4 SAVING "           WELLS" ON UNIT  53 AT TIME STEP  9, STRESS PERIOD   2
 UBDSV4 SAVING "   RIVER LEAKAGE" ON UNIT  53 AT TIME STEP  9, STRESS PERIOD   2
 UBDSV3 SAVING "        RECHARGE" ON UNIT  53 AT TIME STEP  9, STRESS PERIOD   2
1
              HEAD IN LAYER   1 AT END OF TIME STEP   9 IN STRESS PERIOD    2
  ---------------------------------------------------------------------------

            1           2           3           4           5           6           7           8           9          10
           11          12          13          14          15          16          17          18          19          20
           21          22          23          24          25
 ........................................................................................................................
   1    339.2       339.2       339.1       339.0       338.9       338.7       338.5       338.2       337.9       337.5    
        337.1       336.6       336.1       335.5       334.8       334.0       333.2       332.2       331.1       329.8    
        328.4       326.7       324.9       322.7       320.1    
   2    339.2       339.2       339.1       339.0       338.9       338.7       338.5       338.2       337.9       337.5    
        337.1       336.6       336.1       335.5       334.8       334.0       333.2       332.2       331.1       329.8    
        328.4       326.7       324.9       322.7       320.1    
   3    339.2       339.2       339.1       339.0       338.9       338.7       338.5       338.2       337.9       337.5    
        337.1       336.6       336.1       335.5       334.8       334.0       333.2       332.2       331.1       329.8    
        328.4       326.7       324.9       322.7       320.1    
   4    339.2       339.2       339.1       339.0       338.9       338.7       338.5       338.2       337.9       337.5    
        337.1       336.6       336.1       335.5       334.8       334.0       333.2       332.2       331.1       329.8    
        328.4       326.7       324.9       322.7       320.1    
   5    339.2       339.2       339.1       339.0       338.9       338.7       338.4       338.2       337.9       337.5    
        337.1       336.6       336.1       335.5       334.8       334.0       333.1       332.2       331.1       329.8    
        328.4       326.7       324.9       322.7       320.1    
   6    339.2       339.2       339.1       339.0       338.9       338.7       338.4       338.2       337.9       337.5    
        337.1       336.6       336.1       335.5       334.8       334.0       333.1       332.2       331.0       329.8    
        328.3       326.7       324.8       322.7       320.1    
   7    339.2       339.2       339.1       339.0       338.8       338.7       338.4       338.2       337.8       337.5    
        337.1       336.6       336.1       335.5       334.8       334.0       333.1       332.1       331.0       329.8    
        328.3       326.7       324.8       322.7       320.1    
   8    339.2       339.2       339.1       339.0       338.8       338.7       338.4       338.2       337.8       337.5    
        337.1       336.6       336.0       335.4       334.8       334.0       333.1       332.1       331.0       329.8    
        328.3       326.7       324.8       322.7       320.1    
   9    339.2       339.2       339.1       339.0       338.8       338.7       338.4       338.1       337.8       337.5    
        337.0       336.6       336.0       335.4       334.7       334.0       333.1       332.1       331.0       329.8    
        328.3       326.7       324.8       322.7       320.1    
  10    339.2       339.2       339.1       339.0       338.8       338.6       338.4       338.1       337.8       337.5    
        337.0       336.6       336.0       335.4       334.7       334.0       333.1       332.1       331.0       329.8    
        328.3       326.7       324.8       322.7       320.1    
  11    339.2       339.2       339.1       339.0       338.8       338.6       338.4       338.1       337.8       337.4    
        337.0       336.5       336.0       335.4       334.7       334.0       333.1       332.1       331.0       329.8    
        328.3       326.7       324.8       322.7       320.1    
  12    339.2       339.2       339.1       339.0       338.8       338.6       338.4       338.1       337.8       337.4    
        337.0       336.5       336.0       335.4       334.7       334.0       333.1       332.1       331.0       329.8    
        328.3       326.7       324.8       322.7       320.1    
  13    339.2       339.2       339.1       339.0       338.8       338.6       338.4       338.1       337.8       337.4    
        337.0       336.5       336.0       335.4       334.7       334.0       333.1       332.1       331.0       329.8    
        328.3       326.7       324.8       322.7       320.1    
  14    339.2       339.2       339.1       339.0       338.8       338.6       338.4       338.1       337.8       337.4    
        337.0       336.5       336.0       335.4       334.7       334.0       333.1       332.1       331.0       329.8    
        328.3       326.7       324.8       322.7       320.1    
  15    339.2       339.2       339.1       339.0       338.8       338.6       338.4       338.1       337.8       337.4    
        337.0       336.5       336.0       335.4       334.7       334.0       333.1       332.1       331.0       329.8    
        328.3       326.7       324.8       322.7       320.1    
  16    339.2       339.2       339.1       339.0       338.8       338.6       338.4       338.1       337.8       337.5    
        337.0       336.6       336.0       335.4       334.7       334.0       333.1       332.1       331.0       329.8    
        328.3       326.7       324.8       322.7       320.1    
  17    339.2       339.2       339.1       339.0       338.8       338.7       338.4       338.1       337.8       337.5    
        337.0       336.6       336.0       335.4       334.7       334.0       333.1       332.1       331.0       329.8    
        328.3       326.7       324.8       322.7       320.1    
  18    339.2       339.2       339.1       339.0       338.8       338.7       338.4       338.2       337.8       337.5    
        337.1       336.6       336.0       335.4       334.8       334.0       333.1       332.1       331.0       329.8    
        328.3       326.7       324.8       322.7       320.1    
  19    339.2       339.2       339.1       339.0       338.8       338.7       338.4       338.2       337.8       337.5    
        337.1       336.6       336.1       335.5       334.8       334.0       333.1       332.1       331.0       329.8    
        328.3       326.7       324.8       322.7       320.1    
  20    339.2       339.2       339.1       339.0       338.9       338.7       338.4       338.2       337.9       337.5    
        337.1       336.6       336.1       335.5       334.8       334.0       333.1       332.2       331.0       329.8    
        328.3       326.7       324.8       322.7       320.1    
  21    339.2       339.2       339.1       339.0       338.9       338.7       338.4       338.2       337.9       337.5    
        337.1       336.6       336.1       335.5       334.8       334.0       333.1       332.2       331.1       329.8    
        328.4       326.7       324.9       322.7       320.1    
  22    339.2       339.2       339.1       339.0       338.9       338.7       338.5       338.2       337.9       337.5    
        337.1       336.6       336.1       335.5       334.8       334.0       333.2       332.2       331.1       329.8    
        328.4       326.7       324.9       322.7       320.1    
  23    339.2       339.2       339.1       339.0       338.9       338.7       338.5       338.2       337.9       337.5    
        337.1       336.6       336.1       335.5       334.8       334.0       333.2       332.2       331.1       329.8    
        328.4       326.7       324.9       322.7       320.1    
  24    339.2       339.2       339.1       339.0       338.9       338.7       338.5       338.2       337.9       337.5    
        337.1       336.6       336.1       335.5       334.8       334.0       333.2       332.2       331.1       329.8    
        328.4       326.7       324.9       322.7       320.1    
  25    339.2       339.2       339.1       339.0       338.9       338.7       338.5       338.2       337.9       337.5    
        337.1       336.6       336.1       335.5       334.8       334.0       333.2       332.2       331.1       329.8    
        328.4       326.7       324.9       322.7       320.1    
1
              HEAD IN LAYER   2 AT END OF TIME STEP   9 IN STRESS PERIOD    2
  ---------------------------------------------------------------------------

            1           2           3           4           5           6           7           8           9          10
           11          12          13          14          15          16          17          18          19          20
           21          22          23          24          25
 ........................................................................................................................
   1    339.2       339.2       339.1       339.0       338.8       338.7       338.4       338.2       337.9       337.5    
        337.1       336.6       336.1       335.5       334.8       334.0       333.2       332.2       331.0       329.8    
        328.4       326.7       324.8       322.7       320.4    
   2    339.2       339.2       339.1       339.0       338.8       338.7       338.4       338.2       337.9       337.5    
        337.1       336.6       336.1       335.5       334.8       334.0       333.1       332.2       331.0       329.8    
        328.3       326.7       324.8       322.7       320.4    
   3    339.2       339.2       339.1       339.0       338.8       338.7       338.4       338.2       337.9       337.5    
        337.1       336.6       336.1       335.5       334.8       334.0       333.1       332.2       331.0       329.8    
        328.3       326.7       324.8       322.7       320.4    
   4    339.2       339.2       339.1       339.0       338.8       338.7       338.4       338.2       337.9       337.5    
        337.1       336.6       336.1       335.5       334.8       334.0       333.1       332.2       331.0       329.8    
        328.3       326.7       324.8       322.7       320.4    
   5    339.2       339.2       339.1       339.0       338.8       338.7       338.4       338.2       337.8       337.5    
        337.1       336.6       336.1       335.5       334.8       334.0       333.1       332.1       331.0       329.8    
        328.3       326.7       324.8       322.7       320.4    
   6    339.2       339.2       339.1       339.0       338.8       338.6       338.4       338.1       337.8       337.5    
        337.1       336.6       336.1       335.4       334.8       334.0       333.1       332.1       331.0       329.8    
        328.3       326.7       324.8       322.7       320.3    
   7    339.2       339.2       339.1       339.0       338.8       338.6       338.4       338.1       337.8       337.5    
        337.0       336.6       336.0       335.4       334.8       334.0       333.1       332.1       331.0       329.8    
        328.3       326.7       324.8       322.7       320.3    
   8    339.2       339.1       339.1       339.0       338.8       338.6       338.4       338.1       337.8       337.5    
        337.0       336.6       336.0       335.4       334.7       334.0       333.1       332.1       331.0       329.8    
        328.3       326.7       324.8       322.7       320.3    
   9    339.2       339.1       339.1       339.0       338.8       338.6       338.4       338.1       337.8       337.4    
        337.0       336.5       336.0       335.4       334.7       334.0       333.1       332.1       331.0       329.8    
        328.3       326.7       324.8       322.7       320.3    
  10    339.2       339.1       339.1       339.0       338.8       338.6       338.4       338.1       337.8       337.4    
        337.0       336.5       336.0       335.4       334.7       333.9       333.1       332.1       331.0       329.7    
        328.3       326.7       324.8       322.7       320.3    
  11    339.2       339.1       339.1       339.0       338.8       338.6       338.4       338.1       337.8       337.4    
        337.0       336.5       336.0       335.4       334.7       333.9       333.1       332.1       331.0       329.7    
        328.3       326.7       324.8       322.7       320.3    
  12    339.2       339.1       339.1       339.0       338.8       338.6       338.4       338.1       337.8       337.4    
        337.0       336.5       336.0       335.4       334.7       333.9       333.1       332.1       331.0       329.7    
        328.3       326.7       324.8       322.7       320.3    
  13    339.2       339.1       339.1       339.0       338.8       338.6       338.4       338.1       337.8       337.4    
        337.0       336.5       336.0       335.4       334.7       333.9       333.1       332.1       331.0       329.7    
        328.3       326.7       324.8       322.7       320.3    
  14    339.2       339.1       339.1       339.0       338.8       338.6       338.4       338.1       337.8       337.4    
        337.0       336.5       336.0       335.4       334.7       333.9       333.1       332.1       331.0       329.7    
        328.3       326.7       324.8       322.7       320.3    
  15    339.2       339.1       339.1       339.0       338.8       338.6       338.4       338.1       337.8       337.4    
        337.0       336.5       336.0       335.4       334.7       333.9       333.1       332.1       331.0       329.7    
        328.3       326.7       324.8       322.7       320.3    
  16    339.2       339.1       339.1       339.0       338.8       338.6       338.4       338.1       337.8       337.4    
        337.0       336.5       336.0       335.4       334.7       333.9       333.1       332.1       331.0       329.7    
        328.3       326.7       324.8       322.7       320.3    
  17    339.2       339.1       339.1       339.0       338.8       338.6       338.4       338.1       337.8       337.4    
        337.0       336.5       336.0       335.4       334.7       334.0       333.1       332.1       331.0       329.8    
        328.3       326.7       324.8       322.7       320.3    
  18    339.2       339.1       339.1       339.0       338.8       338.6       338.4       338.1       337.8       337.5    
        337.0       336.6       336.0       335.4       334.7       334.0       333.1       332.1       331.0       329.8    
        328.3       326.7       324.8       322.7       320.3    
  19    339.2       339.2       339.1       339.0       338.8       338.6       338.4       338.1       337.8       337.5    
        337.0       336.6       336.0       335.4       334.8       334.0       333.1       332.1       331.0       329.8    
        328.3       326.7       324.8       322.7       320.3    
  20    339.2       339.2       339.1       339.0       338.8       338.6       338.4       338.1       337.8       337.5    
        337.1       336.6       336.1       335.4       334.8       334.0       333.1       332.1       331.0       329.8    
        328.3       326.7       324.8       322.7       320.3    
  21    339.2       339.2       339.1       339.0       338.8       338.7       338.4       338.2       337.8       337.5    
        337.1       336.6       336.1       335.5       334.8       334.0       333.1       332.1       331.0       329.8    
        328.3       326.7       324.8       322.7       320.4    
  22    339.2       339.2       339.1       339.0       338.8       338.7       338.4       338.2       337.9       337.5    
        337.1       336.6       336.1       335.5       334.8       334.0       333.1       332.2       331.0       329.8    
        328.3       326.7       324.8       322.7       320.4    
  23    339.2       339.2       339.1       339.0       338.8       338.7       338.4       338.2       337.9       337.5    
        337.1       336.6       336.1       335.5       334.8       334.0       333.1       332.2       331.0       329.8    
        328.3       326.7       324.8       322.7       320.4    
  24    339.2       339.2       339.1       339.0       338.8       338.7       338.4       338.2       337.9       337.5    
        337.1       336.6       336.1       335.5       334.8       334.0       333.1       332.2       331.0       329.8    
        328.3       326.7       324.8       322.7       320.4    
  25    339.2       339.2       339.1       339.0       338.8       338.7       338.4       338.2       337.9       337.5    
        337.1       336.6       336.1       335.5       334.8       334.0       333.2       332.2       331.0       329.8    
        328.4       326.7       324.8       322.7       320.4    
1
              HEAD IN LAYER   3 AT END OF TIME STEP   9 IN STRESS PERIOD    2
  ---------------------------------------------------------------------------

            1           2           3           4           5           6           7           8           9          10
           11          12          13          14          15          16          17          18          19          20
           21          22          23          24          25
 ........................................................................................................................
   1    335.5       335.5       335.5       335.4       335.3       335.2       335.0       334.9       334.7       334.4    
        334.2       333.9       333.6       333.2       332.9       332.4       331.9       331.4       330.8       330.1    
        329.4       328.5       327.6       326.5       325.3    
   2    335.5       335.5       335.5       335.4       335.3       335.2       335.0       334.9       334.7       334.4    
        334.2       333.9       333.6       333.2       332.9       332.4       331.9       331.4       330.8       330.1    
        329.4       328.5       327.6       326.5       325.3    
   3    335.5       335.5       335.5       335.4       335.3       335.2       335.0       334.8       334.7       334.4    
        334.2       333.9       333.6       333.2       332.8       332.4       331.9       331.4       330.8       330.1    
        329.4       328.5       327.6       326.5       325.3    
   4    335.5       335.5       335.4       335.4       335.3       335.2       335.0       334.8       334.6       334.4    
        334.2       333.9       333.6       333.2       332.8       332.4       331.9       331.4       330.8       330.1    
        329.4       328.5       327.6       326.5       325.3    
   5    335.5       335.5       335.4       335.4       335.3       335.1       335.0       334.8       334.6       334.4    
        334.1       333.9       333.5       333.2       332.8       332.4       331.9       331.4       330.8       330.1    
        329.4       328.5       327.6       326.5       325.3    
   6    335.5       335.5       335.4       335.4       335.3       335.1       335.0       334.8       334.6       334.4    
        334.1       333.8       333.5       333.2       332.8       332.3       331.9       331.3       330.8       330.1    
        329.3       328.5       327.5       326.5       325.3    
   7    335.5       335.5       335.4       335.3       335.2       335.1       335.0       334.8       334.6       334.3    
        334.1       333.8       333.5       333.1       332.7       332.3       331.8       331.3       330.7       330.1    
        329.3       328.5       327.5       326.4       325.3    
   8    335.5       335.5       335.4       335.3       335.2       335.1       334.9       334.8       334.5       334.3    
        334.0       333.7       333.4       333.1       332.7       332.3       331.8       331.3       330.7       330.1    
        329.3       328.5       327.5       326.4       325.3    
   9    335.5       335.5       335.4       335.3       335.2       335.1       334.9       334.7       334.5       334.3    
        334.0       333.7       333.3       333.0       332.6       332.2       331.8       331.3       330.7       330.0    
        329.3       328.5       327.5       326.4       325.2    
  10    335.5       335.4       335.4       335.3       335.2       335.1       334.9       334.7       334.5       334.2    
        333.9       333.6       333.3       332.9       332.6       332.2       331.7       331.2       330.7       330.0    
        329.3       328.5       327.5       326.4       325.2    
  11    335.5       335.4       335.4       335.3       335.2       335.1       334.9       334.7       334.4       334.2    
        333.8       333.5       333.1       332.8       332.5       332.1       331.7       331.2       330.7       330.0    
        329.3       328.5       327.5       326.4       325.2    
  12    335.5       335.4       335.4       335.3       335.2       335.0       334.9       334.7       334.4       334.1    
        333.8       333.4       333.0       332.7       332.4       332.1       331.7       331.2       330.6       330.0    
        329.3       328.4       327.5       326.4       325.2    
  13    335.5       335.4       335.4       335.3       335.2       335.0       334.9       334.7       334.4       334.1    
        333.7       333.3       332.7       332.6       332.4       332.1       331.7       331.2       330.6       330.0    
        329.3       328.4       327.5       326.4       325.2    
  14    335.5       335.4       335.4       335.3       335.2       335.0       334.9       334.7       334.4       334.1    
        333.8       333.4       333.0       332.7       332.4       332.1       331.7       331.2       330.6       330.0    
        329.3       328.4       327.5       326.4       325.2    
  15    335.5       335.4       335.4       335.3       335.2       335.1       334.9       334.7       334.4       334.2    
        333.8       333.5       333.1       332.8       332.5       332.1       331.7       331.2       330.7       330.0    
        329.3       328.5       327.5       326.4       325.2    
  16    335.5       335.4       335.4       335.3       335.2       335.1       334.9       334.7       334.5       334.2    
        333.9       333.6       333.3       332.9       332.6       332.2       331.7       331.2       330.7       330.0    
        329.3       328.5       327.5       326.4       325.2    
  17    335.5       335.5       335.4       335.3       335.2       335.1       334.9       334.7       334.5       334.3    
        334.0       333.7       333.3       333.0       332.6       332.2       331.8       331.3       330.7       330.0    
        329.3       328.5       327.5       326.4       325.2    
  18    335.5       335.5       335.4       335.3       335.2       335.1       334.9       334.8       334.5       334.3    
        334.0       333.7       333.4       333.1       332.7       332.3       331.8       331.3       330.7       330.1    
        329.3       328.5       327.5       326.4       325.3    
  19    335.5       335.5       335.4       335.3       335.2       335.1       335.0       334.8       334.6       334.3    
        334.1       333.8       333.5       333.1       332.7       332.3       331.8       331.3       330.7       330.1    
        329.3       328.5       327.5       326.4       325.3    
  20    335.5       335.5       335.4       335.4       335.3       335.1       335.0       334.8       334.6       334.4    
        334.1       333.8       333.5       333.2       332.8       332.3       331.9       331.3       330.8       330.1    
        329.3       328.5       327.5       326.5       325.3    
  21    335.5       335.5       335.4       335.4       335.3       335.1       335.0       334.8       334.6       334.4    
        334.1       333.9       333.5       333.2       332.8       332.4       331.9       331.4       330.8       330.1    
        329.4       328.5       327.6       326.5       325.3    
  22    335.5       335.5       335.4       335.4       335.3       335.2       335.0       334.8       334.6       334.4    
        334.2       333.9       333.6       333.2       332.8       332.4       331.9       331.4       330.8       330.1    
        329.4       328.5       327.6       326.5       325.3    
  23    335.5       335.5       335.5       335.4       335.3       335.2       335.0       334.8       334.7       334.4    
        334.2       333.9       333.6       333.2       332.8       332.4       331.9       331.4       330.8       330.1    
        329.4       328.5       327.6       326.5       325.3    
  24    335.5       335.5       335.5       335.4       335.3       335.2       335.0       334.9       334.7       334.4    
        334.2       333.9       333.6       333.2       332.9       332.4       331.9       331.4       330.8       330.1    
        329.4       328.5       327.6       326.5       325.3    
  25    335.5       335.5       335.5       335.4       335.3       335.2       335.0       334.9       334.7       334.4    
        334.2       333.9       333.6       333.2       332.9       332.4       331.9       331.4       330.8       330.1    
        329.4       328.5       327.6       326.5       325.3    
1
              HEAD IN LAYER   4 AT END OF TIME STEP   9 IN STRESS PERIOD    2
  ---------------------------------------------------------------------------

            1           2           3           4           5           6           7           8           9          10
           11          12          13          14          15          16          17          18          19          20
           21          22          23          24          25
 ........................................................................................................................
   1    331.9       331.8       331.8       331.8       331.7       331.7       331.6       331.5       331.5       331.4    
        331.3       331.2       331.1       331.0       330.9       330.8       330.7       330.7       330.6       330.5    
        330.4       330.3       330.3       330.2       330.2    
   2    331.9       331.8       331.8       331.8       331.7       331.7       331.6       331.5       331.5       331.4    
        331.3       331.2       331.1       331.0       330.9       330.8       330.7       330.6       330.6       330.5    
        330.4       330.3       330.3       330.2       330.2    
   3    331.8       331.8       331.8       331.8       331.7       331.7       331.6       331.5       331.4       331.4    
        331.3       331.2       331.1       331.0       330.9       330.8       330.7       330.6       330.5       330.5    
        330.4       330.3       330.3       330.2       330.2    
   4    331.8       331.8       331.8       331.8       331.7       331.7       331.6       331.5       331.4       331.3    
        331.2       331.1       331.1       331.0       330.9       330.8       330.7       330.6       330.5       330.5    
        330.4       330.3       330.3       330.2       330.2    
   5    331.8       331.8       331.8       331.8       331.7       331.6       331.6       331.5       331.4       331.3    
        331.2       331.1       331.0       330.9       330.8       330.7       330.7       330.6       330.5       330.4    
        330.4       330.3       330.3       330.2       330.2    
   6    331.8       331.8       331.8       331.7       331.7       331.6       331.5       331.5       331.4       331.3    
        331.2       331.1       331.0       330.9       330.8       330.7       330.6       330.6       330.5       330.4    
        330.4       330.3       330.2       330.2       330.2    
   7    331.8       331.8       331.8       331.7       331.7       331.6       331.5       331.4       331.3       331.2    
        331.1       331.0       330.9       330.8       330.7       330.7       330.6       330.5       330.5       330.4    
        330.3       330.3       330.2       330.2       330.2    
   8    331.8       331.8       331.7       331.7       331.6       331.6       331.5       331.4       331.3       331.1    
        331.0       330.9       330.8       330.7       330.6       330.6       330.5       330.5       330.4       330.4    
        330.3       330.3       330.2       330.2       330.2    
   9    331.8       331.8       331.7       331.7       331.6       331.5       331.4       331.3       331.2       331.1    
        330.9       330.8       330.7       330.6       330.6       330.5       330.5       330.4       330.4       330.3    
        330.3       330.2       330.2       330.2       330.1    
  10    331.8       331.8       331.7       331.7       331.6       331.5       331.4       331.3       331.1       331.0    
        330.8       330.6       330.5       330.5       330.4       330.4       330.4       330.4       330.4       330.3    
        330.3       330.2       330.2       330.2       330.1    
  11    331.8       331.7       331.7       331.7       331.6       331.5       331.4       331.2       331.1       330.9    
        330.7       330.5       330.3       330.3       330.3       330.3       330.3       330.3       330.3       330.3    
        330.3       330.2       330.2       330.1       330.1    
  12    331.8       331.7       331.7       331.6       331.6       331.5       331.4       331.2       331.0       330.8    
        330.5       330.2       329.9       330.0       330.2       330.3       330.3       330.3       330.3       330.3    
        330.2       330.2       330.2       330.1       330.1    
  13    331.8       331.7       331.7       331.6       331.6       331.5       331.4       331.2       331.0       330.8    
        330.5       330.0       329.5       329.9       330.1       330.2       330.3       330.3       330.3       330.3    
        330.2       330.2       330.2       330.1       330.1    
  14    331.8       331.7       331.7       331.6       331.6       331.5       331.4       331.2       331.0       330.8    
        330.5       330.2       329.9       330.0       330.2       330.3       330.3       330.3       330.3       330.3    
        330.2       330.2       330.2       330.1       330.1    
  15    331.8       331.7       331.7       331.7       331.6       331.5       331.4       331.2       331.1       330.9    
        330.7       330.5       330.3       330.3       330.3       330.3       330.3       330.3       330.3       330.3    
        330.3       330.2       330.2       330.1       330.1    
  16    331.8       331.8       331.7       331.7       331.6       331.5       331.4       331.3       331.1       331.0    
        330.8       330.6       330.5       330.5       330.4       330.4       330.4       330.4       330.4       330.3    
        330.3       330.2       330.2       330.2       330.1    
  17    331.8       331.8       331.7       331.7       331.6       331.5       331.4       331.3       331.2       331.1    
        330.9       330.8       330.7       330.6       330.6       330.5       330.5       330.4       330.4       330.3    
        330.3       330.2       330.2       330.2       330.1    
  18    331.8       331.8       331.7       331.7       331.6       331.6       331.5       331.4       331.3       331.1    
        331.0       330.9       330.8       330.7       330.6       330.6       330.5       330.5       330.4       330.4    
        330.3       330.3       330.2       330.2       330.2    
  19    331.8       331.8       331.8       331.7       331.7       331.6       331.5       331.4       331.3       331.2    
        331.1       331.0       330.9       330.8       330.7       330.7       330.6       330.5       330.5       330.4    
        330.3       330.3       330.2       330.2       330.2    
  20    331.8       331.8       331.8       331.7       331.7       331.6       331.5       331.5       331.4       331.3    
        331.2       331.1       331.0       330.9       330.8       330.7       330.6       330.6       330.5       330.4    
        330.4       330.3       330.2       330.2       330.2    
  21    331.8       331.8       331.8       331.8       331.7       331.6       331.6       331.5       331.4       331.3    
        331.2       331.1       331.0       330.9       330.8       330.7       330.7       330.6       330.5       330.4    
        330.4       330.3       330.3       330.2       330.2    
  22    331.8       331.8       331.8       331.8       331.7       331.7       331.6       331.5       331.4       331.3    
        331.2       331.1       331.1       331.0       330.9       330.8       330.7       330.6       330.5       330.5    
        330.4       330.3       330.3       330.2       330.2    
  23    331.8       331.8       331.8       331.8       331.7       331.7       331.6       331.5       331.4       331.4    
        331.3       331.2       331.1       331.0       330.9       330.8       330.7       330.6       330.5       330.5    
        330.4       330.3       330.3       330.2       330.2    
  24    331.9       331.8       331.8       331.8       331.7       331.7       331.6       331.5       331.5       331.4    
        331.3       331.2       331.1       331.0       330.9       330.8       330.7       330.6       330.6       330.5    
        330.4       330.3       330.3       330.2       330.2    
  25    331.9       331.8       331.8       331.8       331.7       331.7       331.6       331.5       331.5       331.4    
        331.3       331.2       331.1       331.0       330.9       330.8       330.7       330.7       330.6       330.5    
        330.4       330.3       330.3       330.2       330.2    
1
              HEAD IN LAYER   5 AT END OF TIME STEP   9 IN STRESS PERIOD    2
  ---------------------------------------------------------------------------

            1           2           3           4           5           6           7           8           9          10
           11          12          13          14          15          16          17          18          19          20
           21          22          23          24          25
 ........................................................................................................................
   1    331.8       331.8       331.8       331.8       331.7       331.7       331.6       331.5       331.5       331.4    
        331.3       331.2       331.1       331.0       330.9       330.8       330.7       330.6       330.6       330.5    
        330.4       330.3       330.3       330.3       330.2    
   2    331.8       331.8       331.8       331.8       331.7       331.7       331.6       331.5       331.5       331.4    
        331.3       331.2       331.1       331.0       330.9       330.8       330.7       330.6       330.6       330.5    
        330.4       330.3       330.3       330.3       330.2    
   3    331.8       331.8       331.8       331.8       331.7       331.7       331.6       331.5       331.4       331.4    
        331.3       331.2       331.1       331.0       330.9       330.8       330.7       330.6       330.5       330.5    
        330.4       330.3       330.3       330.2       330.2    
   4    331.8       331.8       331.8       331.8       331.7       331.6       331.6       331.5       331.4       331.3    
        331.2       331.1       331.0       331.0       330.9       330.8       330.7       330.6       330.5       330.5    
        330.4       330.3       330.3       330.2       330.2    
   5    331.8       331.8       331.8       331.7       331.7       331.6       331.6       331.5       331.4       331.3    
        331.2       331.1       331.0       330.9       330.8       330.7       330.7       330.6       330.5       330.4    
        330.4       330.3       330.3       330.2       330.2    
   6    331.8       331.8       331.8       331.7       331.7       331.6       331.5       331.4       331.4       331.3    
        331.1       331.0       331.0       330.9       330.8       330.7       330.6       330.6       330.5       330.4    
        330.4       330.3       330.3       330.2       330.2    
   7    331.8       331.8       331.8       331.7       331.7       331.6       331.5       331.4       331.3       331.2    
        331.1       331.0       330.9       330.8       330.7       330.6       330.6       330.5       330.5       330.4    
        330.3       330.3       330.2       330.2       330.2    
   8    331.8       331.8       331.7       331.7       331.6       331.6       331.5       331.4       331.3       331.1    
        331.0       330.9       330.8       330.7       330.6       330.6       330.5       330.5       330.4       330.4    
        330.3       330.3       330.2       330.2       330.2    
   9    331.8       331.8       331.7       331.7       331.6       331.5       331.4       331.3       331.2       331.1    
        330.9       330.8       330.7       330.6       330.5       330.5       330.5       330.4       330.4       330.3    
        330.3       330.2       330.2       330.2       330.2    
  10    331.8       331.7       331.7       331.7       331.6       331.5       331.4       331.3       331.1       331.0    
        330.8       330.6       330.5       330.5       330.4       330.4       330.4       330.4       330.3       330.3    
        330.3       330.2       330.2       330.2       330.1    
  11    331.8       331.7       331.7       331.6       331.6       331.5       331.4       331.2       331.1       330.9    
        330.7       330.4       330.3       330.3       330.3       330.3       330.3       330.3       330.3       330.3    
        330.3       330.2       330.2       330.2       330.1    
  12    331.8       331.7       331.7       331.6       331.6       331.5       331.3       331.2       331.0       330.8    
        330.5       330.2       329.8       330.0       330.2       330.3       330.3       330.3       330.3       330.3    
        330.2       330.2       330.2       330.2       330.1    
  13    331.7       331.7       331.7       331.6       331.6       331.5       331.3       331.2       331.0       330.8    
        330.4       329.9       328.3       329.7       330.1       330.2       330.3       330.3       330.3       330.3    
        330.2       330.2       330.2       330.1       330.1    
  14    331.8       331.7       331.7       331.6       331.6       331.5       331.3       331.2       331.0       330.8    
        330.5       330.2       329.8       330.0       330.2       330.3       330.3       330.3       330.3       330.3    
        330.2       330.2       330.2       330.2       330.1    
  15    331.8       331.7       331.7       331.6       331.6       331.5       331.4       331.2       331.1       330.9    
        330.7       330.4       330.3       330.3       330.3       330.3       330.3       330.3       330.3       330.3    
        330.3       330.2       330.2       330.2       330.1    
  16    331.8       331.7       331.7       331.7       331.6       331.5       331.4       331.3       331.1       331.0    
        330.8       330.6       330.5       330.5       330.4       330.4       330.4       330.4       330.3       330.3    
        330.3       330.2       330.2       330.2       330.1    
  17    331.8       331.8       331.7       331.7       331.6       331.5       331.4       331.3       331.2       331.1    
        330.9       330.8       330.7       330.6       330.5       330.5       330.5       330.4       330.4       330.3    
        330.3       330.2       330.2       330.2       330.2    
  18    331.8       331.8       331.7       331.7       331.6       331.6       331.5       331.4       331.3       331.1    
        331.0       330.9       330.8       330.7       330.6       330.6       330.5       330.5       330.4       330.4    
        330.3       330.3       330.2       330.2       330.2    
  19    331.8       331.8       331.8       331.7       331.7       331.6       331.5       331.4       331.3       331.2    
        331.1       331.0       330.9       330.8       330.7       330.6       330.6       330.5       330.5       330.4    
        330.3       330.3       330.2       330.2       330.2    
  20    331.8       331.8       331.8       331.7       331.7       331.6       331.5       331.4       331.4       331.3    
        331.1       331.0       331.0       330.9       330.8       330.7       330.6       330.6       330.5       330.4    
        330.4       330.3       330.3       330.2       330.2    
  21    331.8       331.8       331.8       331.7       331.7       331.6       331.6       331.5       331.4       331.3    
        331.2       331.1       331.0       330.9       330.8       330.7       330.7       330.6       330.5       330.4    
        330.4       330.3       330.3       330.2       330.2    
  22    331.8       331.8       331.8       331.8       331.7       331.6       331.6       331.5       331.4       331.3    
        331.2       331.1       331.0       331.0       330.9       330.8       330.7       330.6       330.5       330.5    
        330.4       330.3       330.3       330.2       330.2    
  23    331.8       331.8       331.8       331.8       331.7       331.7       331.6       331.5       331.4       331.4    
        331.3       331.2       331.1       331.0       330.9       330.8       330.7       330.6       330.5       330.5    
        330.4       330.3       330.3       330.2       330.2    
  24    331.8       331.8       331.8       331.8       331.7       331.7       331.6       331.5       331.5       331.4    
        331.3       331.2       331.1       331.0       330.9       330.8       330.7       330.6       330.6       330.5    
        330.4       330.3       330.3       330.3       330.2    
  25    331.8       331.8       331.8       331.8       331.7       331.7       331.6       331.5       331.5       331.4    
        331.3       331.2       331.1       331.0       330.9       330.8       330.7       330.6       330.6       330.5    
        330.4       330.3       330.3       330.3       330.2    

 HEAD WILL BE SAVED ON UNIT   50 AT END OF TIME STEP   9, STRESS PERIOD    2



          TIME SUMMARY AT END OF TIME STEP   9 IN STRESS PERIOD    2
                    SECONDS     MINUTES      HOURS       DAYS        YEARS
                    -----------------------------------------------------------
   TIME STEP LENGTH 1.95388E+08 3.25647E+06  54275.      2261.4      6.1915    
 STRESS PERIOD TIME 5.70918E+08 9.51529E+06 1.58588E+05  6607.8      18.091    
         TOTAL TIME 1.78509E+10 2.97515E+08 4.95859E+06 2.06608E+05  565.66    
1
 
 SOLVING FOR HEAD 
     3 CALLS TO PCG ROUTINE FOR TIME STEP  10 IN STRESS PERIOD    2
    28 TOTAL ITERATIONS

 MAXIMUM HEAD CHANGE FOR EACH ITERATION (1 INDICATES THE FIRST INNER ITERATION):

    HEAD CHANGE    HEAD CHANGE    HEAD CHANGE    HEAD CHANGE    HEAD CHANGE 
   LAYER,ROW,COL  LAYER,ROW,COL  LAYER,ROW,COL  LAYER,ROW,COL  LAYER,ROW,COL
 ---------------------------------------------------------------------------
  1 -0.5209E-01  0 -0.1976E-01  0 -0.1373E-01  0 -0.1019E-01  0 -0.5998E-02
   (  2, 25,  5)  (  5,  1, 16)  (  5,  1, 25)  (  2,  1, 10)  (  2,  1, 16)
  0  0.5096E-02  0 -0.5821E-02  0 -0.4054E-02  0  0.2688E-02  0  0.1575E-02
   (  3, 17, 24)  (  3, 21,  1)  (  3,  6,  1)  (  3,  4, 24)  (  2,  1, 21)
  0  0.9514E-03  0 -0.6120E-03  0 -0.6427E-03  0 -0.3911E-03  0 -0.4180E-03
   (  2,  1, 22)  (  3,  6, 24)  (  3,  4, 24)  (  3, 10, 24)  (  3,  2, 24)
  0 -0.1577E-03  0 -0.3619E-04  1  0.1428E-02  0  0.8708E-03  0  0.6772E-03
   (  3,  1, 24)  (  5, 25, 10)  (  2, 25,  7)  (  2, 25,  7)  (  5,  1, 23)
  0  0.4226E-03  0  0.3694E-03  0  0.1843E-03  0  0.2623E-03  0  0.1453E-03
   (  2,  1,  9)  (  2,  1, 15)  (  2,  1, 19)  (  3, 21,  1)  (  3,  6,  1)
  0 -0.1075E-03  0 -0.5677E-04  1 -0.4136E-04
   (  2,  2, 20)  (  3, 13, 24)  (  2, 25, 12)

 MAXIMUM RESIDUAL FOR EACH ITERATION (1 INDICATES THE FIRST INNER ITERATION):

    RESIDUAL       RESIDUAL       RESIDUAL       RESIDUAL       RESIDUAL    
   LAYER,ROW,COL  LAYER,ROW,COL  LAYER,ROW,COL  LAYER,ROW,COL  LAYER,ROW,COL
 ---------------------------------------------------------------------------
  1  -39.11      0  -33.28      0  -33.63      0  -29.80      0  -24.32    
   (  5, 25, 23)  (  2, 25, 24)  (  2, 25, 24)  (  2, 25, 24)  (  2, 25, 24)
  0   21.13      0  -21.62      0  -21.46      0  -17.89      0  -12.61    
   (  1,  5, 25)  (  2,  3, 24)  (  2,  2, 24)  (  2,  2, 24)  (  2,  2, 24)
  0  -8.800      0  -5.210      0  -3.142      0  -2.207      0  -1.265    
   (  2,  1, 24)  (  2,  1, 24)  (  2,  3, 22)  (  2,  2, 22)  (  2,  2, 23)
  0 -0.7059      0 -0.5301      1   1.304      0   1.202      0   1.042    
   (  2,  2, 23)  (  2,  2, 23)  (  5, 25, 21)  (  1,  3, 25)  (  1,  2, 25)
  0  0.9343      0  0.7701      0 -0.6715      0  0.6276      0  0.5935    
   (  1,  1, 25)  (  5, 25, 15)  (  2,  1, 24)  (  2,  2, 21)  (  2,  2, 22)
  0  0.4317      0  0.3354      1 -0.2569    
   (  2,  2, 23)  (  2,  1, 22)  (  1,  2, 21)



 OUTPUT CONTROL FOR STRESS PERIOD    2   TIME STEP  10
    PRINT BUDGET
    SAVE BUDGET
    PRINT HEAD FOR ALL LAYERS
    SAVE HEAD FOR ALL LAYERS
 UBDSV1 SAVING "         STORAGE" ON UNIT  53 AT TIME STEP 10, STRESS PERIOD   2
 UBDSV2 SAVING "   CONSTANT HEAD" ON UNIT  53 AT TIME STEP 10, STRESS PERIOD   2
 UBDSV1 SAVING "FLOW RIGHT FACE " ON UNIT  53 AT TIME STEP 10, STRESS PERIOD   2
 UBDSV1 SAVING "FLOW FRONT FACE " ON UNIT  53 AT TIME STEP 10, STRESS PERIOD   2
 UBDSV1 SAVING "FLOW LOWER FACE " ON UNIT  53 AT TIME STEP 10, STRESS PERIOD   2
 UBDSV4 SAVING "           WELLS" ON UNIT  53 AT TIME STEP 10, STRESS PERIOD   2
 UBDSV4 SAVING "   RIVER LEAKAGE" ON UNIT  53 AT TIME STEP 10, STRESS PERIOD   2
 UBDSV3 SAVING "        RECHARGE" ON UNIT  53 AT TIME STEP 10, STRESS PERIOD   2
1
              HEAD IN LAYER   1 AT END OF TIME STEP  10 IN STRESS PERIOD    2
  ---------------------------------------------------------------------------

            1           2           3           4           5           6           7           8           9          10
           11          12          13          14          15          16          17          18          19          20
           21          22          23          24          25
 ........................................................................................................................
   1    339.2       339.1       339.0       338.9       338.8       338.6       338.4       338.1       337.8       337.5    
        337.0       336.6       336.0       335.4       334.8       334.0       333.1       332.1       331.0       329.8    
        328.3       326.7       324.8       322.7       320.1    
   2    339.1       339.1       339.0       338.9       338.8       338.6       338.4       338.1       337.8       337.4    
        337.0       336.6       336.0       335.4       334.8       334.0       333.1       332.1       331.0       329.8    
        328.3       326.7       324.8       322.7       320.1    
   3    339.1       339.1       339.0       338.9       338.8       338.6       338.4       338.1       337.8       337.4    
        337.0       336.6       336.0       335.4       334.7       334.0       333.1       332.1       331.0       329.8    
        328.3       326.7       324.8       322.7       320.1    
   4    339.1       339.1       339.0       338.9       338.8       338.6       338.4       338.1       337.8       337.4    
        337.0       336.6       336.0       335.4       334.7       334.0       333.1       332.1       331.0       329.8    
        328.3       326.7       324.8       322.7       320.1    
   5    339.1       339.1       339.0       338.9       338.8       338.6       338.4       338.1       337.8       337.4    
        337.0       336.5       336.0       335.4       334.7       334.0       333.1       332.1       331.0       329.7    
        328.3       326.7       324.8       322.7       320.1    
   6    339.1       339.1       339.0       338.9       338.8       338.6       338.4       338.1       337.8       337.4    
        337.0       336.5       336.0       335.4       334.7       334.0       333.1       332.1       331.0       329.7    
        328.3       326.7       324.8       322.7       320.1    
   7    339.1       339.1       339.0       338.9       338.8       338.6       338.4       338.1       337.8       337.4    
        337.0       336.5       336.0       335.4       334.7       333.9       333.1       332.1       331.0       329.7    
        328.3       326.7       324.8       322.7       320.1    
   8    339.1       339.1       339.0       338.9       338.8       338.6       338.4       338.1       337.8       337.4    
        337.0       336.5       336.0       335.4       334.7       333.9       333.1       332.1       331.0       329.7    
        328.3       326.7       324.8       322.7       320.1    
   9    339.1       339.1       339.0       338.9       338.8       338.6       338.3       338.1       337.8       337.4    
        337.0       336.5       336.0       335.4       334.7       333.9       333.1       332.1       331.0       329.7    
        328.3       326.7       324.8       322.7       320.1    
  10    339.1       339.1       339.0       338.9       338.8       338.6       338.3       338.1       337.7       337.4    
        337.0       336.5       336.0       335.4       334.7       333.9       333.1       332.1       331.0       329.7    
        328.3       326.7       324.8       322.7       320.1    
  11    339.1       339.1       339.0       338.9       338.7       338.6       338.3       338.1       337.7       337.4    
        337.0       336.5       335.9       335.3       334.7       333.9       333.0       332.1       331.0       329.7    
        328.3       326.7       324.8       322.7       320.1    
  12    339.1       339.1       339.0       338.9       338.7       338.6       338.3       338.1       337.7       337.4    
        336.9       336.5       335.9       335.3       334.7       333.9       333.0       332.1       331.0       329.7    
        328.3       326.7       324.8       322.7       320.1    
  13    339.1       339.1       339.0       338.9       338.7       338.6       338.3       338.1       337.7       337.4    
        336.9       336.5       335.9       335.3       334.7       333.9       333.0       332.1       331.0       329.7    
        328.3       326.7       324.8       322.7       320.1    
  14    339.1       339.1       339.0       338.9       338.7       338.6       338.3       338.1       337.7       337.4    
        336.9       336.5       335.9       335.3       334.7       333.9       333.0       332.1       331.0       329.7    
        328.3       326.7       324.8       322.7       320.1    
  15    339.1       339.1       339.0       338.9       338.7       338.6       338.3       338.1       337.7       337.4    
        337.0       336.5       335.9       335.3       334.7       333.9       333.0       332.1       331.0       329.7    
        328.3       326.7       324.8       322.7       320.1    
  16    339.1       339.1       339.0       338.9       338.8       338.6       338.3       338.1       337.7       337.4    
        337.0       336.5       336.0       335.4       334.7       333.9       333.1       332.1       331.0       329.7    
        328.3       326.7       324.8       322.7       320.1    
  17    339.1       339.1       339.0       338.9       338.8       338.6       338.3       338.1       337.8       337.4    
        337.0       336.5       336.0       335.4       334.7       333.9       333.1       332.1       331.0       329.7    
        328.3       326.7       324.8       322.7       320.1    
  18    339.1       339.1       339.0       338.9       338.8       338.6       338.4       338.1       337.8       337.4    
        337.0       336.5       336.0       335.4       334.7       333.9       333.1       332.1       331.0       329.7    
        328.3       326.7       324.8       322.7       320.1    
  19    339.1       339.1       339.0       338.9       338.8       338.6       338.4       338.1       337.8       337.4    
        337.0       336.5       336.0       335.4       334.7       333.9       333.1       332.1       331.0       329.7    
        328.3       326.7       324.8       322.7       320.1    
  20    339.1       339.1       339.0       338.9       338.8       338.6       338.4       338.1       337.8       337.4    
        337.0       336.5       336.0       335.4       334.7       334.0       333.1       332.1       331.0       329.7    
        328.3       326.7       324.8       322.7       320.1    
  21    339.1       339.1       339.0       338.9       338.8       338.6       338.4       338.1       337.8       337.4    
        337.0       336.5       336.0       335.4       334.7       334.0       333.1       332.1       331.0       329.7    
        328.3       326.7       324.8       322.7       320.1    
  22    339.1       339.1       339.0       338.9       338.8       338.6       338.4       338.1       337.8       337.4    
        337.0       336.6       336.0       335.4       334.7       334.0       333.1       332.1       331.0       329.8    
        328.3       326.7       324.8       322.7       320.1    
  23    339.1       339.1       339.0       338.9       338.8       338.6       338.4       338.1       337.8       337.4    
        337.0       336.6       336.0       335.4       334.7       334.0       333.1       332.1       331.0       329.8    
        328.3       326.7       324.8       322.7       320.1    
  24    339.1       339.1       339.0       338.9       338.8       338.6       338.4       338.1       337.8       337.4    
        337.0       336.6       336.0       335.4       334.8       334.0       333.1       332.1       331.0       329.8    
        328.3       326.7       324.8       322.7       320.1    
  25    339.2       339.1       339.0       338.9       338.8       338.6       338.4       338.1       337.8       337.5    
        337.0       336.6       336.0       335.4       334.8       334.0       333.1       332.1       331.0       329.8    
        328.3       326.7       324.8       322.7       320.1    
1
              HEAD IN LAYER   2 AT END OF TIME STEP  10 IN STRESS PERIOD    2
  ---------------------------------------------------------------------------

            1           2           3           4           5           6           7           8           9          10
           11          12          13          14          15          16          17          18          19          20
           21          22          23          24          25
 ........................................................................................................................
   1    339.1       339.1       339.0       338.9       338.8       338.6       338.4       338.1       337.8       337.4    
        337.0       336.5       336.0       335.4       334.7       334.0       333.1       332.1       331.0       329.7    
        328.3       326.7       324.8       322.7       320.3    
   2    339.1       339.1       339.0       338.9       338.8       338.6       338.4       338.1       337.8       337.4    
        337.0       336.5       336.0       335.4       334.7       334.0       333.1       332.1       331.0       329.7    
        328.3       326.7       324.8       322.7       320.3    
   3    339.1       339.1       339.0       338.9       338.8       338.6       338.4       338.1       337.8       337.4    
        337.0       336.5       336.0       335.4       334.7       334.0       333.1       332.1       331.0       329.7    
        328.3       326.7       324.8       322.7       320.3    
   4    339.1       339.1       339.0       338.9       338.8       338.6       338.4       338.1       337.8       337.4    
        337.0       336.5       336.0       335.4       334.7       334.0       333.1       332.1       331.0       329.7    
        328.3       326.7       324.8       322.7       320.3    
   5    339.1       339.1       339.0       338.9       338.8       338.6       338.3       338.1       337.8       337.4    
        337.0       336.5       336.0       335.4       334.7       333.9       333.1       332.1       331.0       329.7    
        328.3       326.7       324.8       322.7       320.3    
   6    339.1       339.1       339.0       338.9       338.8       338.6       338.3       338.1       337.8       337.4    
        337.0       336.5       336.0       335.4       334.7       333.9       333.1       332.1       331.0       329.7    
        328.3       326.7       324.8       322.7       320.3    
   7    339.1       339.1       339.0       338.9       338.7       338.6       338.3       338.1       337.8       337.4    
        337.0       336.5       336.0       335.4       334.7       333.9       333.1       332.1       331.0       329.7    
        328.3       326.7       324.8       322.7       320.3    
   8    339.1       339.1       339.0       338.9       338.7       338.6       338.3       338.1       337.7       337.4    
        337.0       336.5       336.0       335.4       334.7       333.9       333.1       332.1       331.0       329.7    
        328.3       326.7       324.8       322.7       320.3    
   9    339.1       339.1       339.0       338.9       338.7       338.5       338.3       338.0       337.7       337.4    
        337.0       336.5       335.9       335.3       334.7       333.9       333.0       332.1       331.0       329.7    
        328.3       326.7       324.8       322.7       320.3    
  10    339.1       339.1       339.0       338.9       338.7       338.5       338.3       338.0       337.7       337.4    
        336.9       336.5       335.9       335.3       334.7       333.9       333.0       332.1       331.0       329.7    
        328.3       326.7       324.8       322.7       320.3    
  11    339.1       339.1       339.0       338.9       338.7       338.5       338.3       338.0       337.7       337.3    
        336.9       336.5       335.9       335.3       334.6       333.9       333.0       332.1       331.0       329.7    
        328.3       326.7       324.8       322.7       320.3    
  12    339.1       339.1       339.0       338.9       338.7       338.5       338.3       338.0       337.7       337.3    
        336.9       336.4       335.9       335.3       334.6       333.9       333.0       332.0       330.9       329.7    
        328.3       326.7       324.8       322.7       320.3    
  13    339.1       339.1       339.0       338.9       338.7       338.5       338.3       338.0       337.7       337.3    
        336.9       336.4       335.9       335.3       334.6       333.9       333.0       332.0       330.9       329.7    
        328.3       326.7       324.8       322.7       320.3    
  14    339.1       339.1       339.0       338.9       338.7       338.5       338.3       338.0       337.7       337.3    
        336.9       336.4       335.9       335.3       334.6       333.9       333.0       332.0       330.9       329.7    
        328.3       326.7       324.8       322.7       320.3    
  15    339.1       339.1       339.0       338.9       338.7       338.5       338.3       338.0       337.7       337.3    
        336.9       336.5       335.9       335.3       334.6       333.9       333.0       332.1       331.0       329.7    
        328.3       326.7       324.8       322.7       320.3    
  16    339.1       339.1       339.0       338.9       338.7       338.5       338.3       338.0       337.7       337.4    
        336.9       336.5       335.9       335.3       334.7       333.9       333.0       332.1       331.0       329.7    
        328.3       326.7       324.8       322.7       320.3    
  17    339.1       339.1       339.0       338.9       338.7       338.5       338.3       338.0       337.7       337.4    
        337.0       336.5       335.9       335.3       334.7       333.9       333.0       332.1       331.0       329.7    
        328.3       326.7       324.8       322.7       320.3    
  18    339.1       339.1       339.0       338.9       338.7       338.6       338.3       338.1       337.7       337.4    
        337.0       336.5       336.0       335.4       334.7       333.9       333.1       332.1       331.0       329.7    
        328.3       326.7       324.8       322.7       320.3    
  19    339.1       339.1       339.0       338.9       338.7       338.6       338.3       338.1       337.8       337.4    
        337.0       336.5       336.0       335.4       334.7       333.9       333.1       332.1       331.0       329.7    
        328.3       326.7       324.8       322.7       320.3    
  20    339.1       339.1       339.0       338.9       338.8       338.6       338.3       338.1       337.8       337.4    
        337.0       336.5       336.0       335.4       334.7       333.9       333.1       332.1       331.0       329.7    
        328.3       326.7       324.8       322.7       320.3    
  21    339.1       339.1       339.0       338.9       338.8       338.6       338.3       338.1       337.8       337.4    
        337.0       336.5       336.0       335.4       334.7       333.9       333.1       332.1       331.0       329.7    
        328.3       326.7       324.8       322.7       320.3    
  22    339.1       339.1       339.0       338.9       338.8       338.6       338.4       338.1       337.8       337.4    
        337.0       336.5       336.0       335.4       334.7       334.0       333.1       332.1       331.0       329.7    
        328.3       326.7       324.8       322.7       320.3    
  23    339.1       339.1       339.0       338.9       338.8       338.6       338.4       338.1       337.8       337.4    
        337.0       336.5       336.0       335.4       334.7       334.0       333.1       332.1       331.0       329.7    
        328.3       326.7       324.8       322.7       320.3    
  24    339.1       339.1       339.0       338.9       338.8       338.6       338.4       338.1       337.8       337.4    
        337.0       336.5       336.0       335.4       334.7       334.0       333.1       332.1       331.0       329.7    
        328.3       326.7       324.8       322.7       320.3    
  25    339.1       339.1       339.0       338.9       338.8       338.6       338.4       338.1       337.8       337.4    
        337.0       336.5       336.0       335.4       334.7       334.0       333.1       332.1       331.0       329.7    
        328.3       326.7       324.8       322.7       320.3    
1
              HEAD IN LAYER   3 AT END OF TIME STEP  10 IN STRESS PERIOD    2
  ---------------------------------------------------------------------------

            1           2           3           4           5           6           7           8           9          10
           11          12          13          14          15          16          17          18          19          20
           21          22          23          24          25
 ........................................................................................................................
   1    335.5       335.4       335.4       335.3       335.2       335.1       335.0       334.8       334.6       334.4    
        334.1       333.8       333.5       333.2       332.8       332.4       331.9       331.4       330.8       330.1    
        329.3       328.5       327.5       326.4       325.3    
   2    335.5       335.4       335.4       335.3       335.2       335.1       335.0       334.8       334.6       334.4    
        334.1       333.8       333.5       333.2       332.8       332.4       331.9       331.4       330.8       330.1    
        329.3       328.5       327.5       326.4       325.3    
   3    335.5       335.4       335.4       335.3       335.2       335.1       335.0       334.8       334.6       334.4    
        334.1       333.8       333.5       333.2       332.8       332.4       331.9       331.3       330.7       330.1    
        329.3       328.5       327.5       326.4       325.3    
   4    335.4       335.4       335.4       335.3       335.2       335.1       334.9       334.8       334.6       334.3    
        334.1       333.8       333.5       333.2       332.8       332.3       331.9       331.3       330.7       330.1    
        329.3       328.5       327.5       326.4       325.3    
   5    335.4       335.4       335.4       335.3       335.2       335.1       334.9       334.8       334.6       334.3    
        334.1       333.8       333.5       333.1       332.7       332.3       331.8       331.3       330.7       330.1    
        329.3       328.5       327.5       326.4       325.2    
   6    335.4       335.4       335.4       335.3       335.2       335.1       334.9       334.7       334.5       334.3    
        334.0       333.8       333.4       333.1       332.7       332.3       331.8       331.3       330.7       330.0    
        329.3       328.5       327.5       326.4       325.2    
   7    335.4       335.4       335.4       335.3       335.2       335.0       334.9       334.7       334.5       334.3    
        334.0       333.7       333.4       333.1       332.7       332.3       331.8       331.3       330.7       330.0    
        329.3       328.4       327.5       326.4       325.2    
   8    335.4       335.4       335.3       335.3       335.2       335.0       334.9       334.7       334.5       334.2    
        334.0       333.7       333.3       333.0       332.6       332.2       331.8       331.2       330.7       330.0    
        329.3       328.4       327.5       326.4       325.2    
   9    335.4       335.4       335.3       335.3       335.1       335.0       334.8       334.7       334.4       334.2    
        333.9       333.6       333.3       332.9       332.6       332.2       331.7       331.2       330.6       330.0    
        329.3       328.4       327.5       326.4       325.2    
  10    335.4       335.4       335.3       335.2       335.1       335.0       334.8       334.6       334.4       334.1    
        333.8       333.5       333.2       332.9       332.5       332.1       331.7       331.2       330.6       330.0    
        329.2       328.4       327.5       326.4       325.2    
  11    335.4       335.4       335.3       335.2       335.1       335.0       334.8       334.6       334.4       334.1    
        333.8       333.4       333.1       332.8       332.4       332.1       331.7       331.2       330.6       330.0    
        329.2       328.4       327.5       326.4       325.2    
  12    335.4       335.4       335.3       335.2       335.1       335.0       334.8       334.6       334.3       334.0    
        333.7       333.3       332.9       332.6       332.4       332.0       331.6       331.2       330.6       330.0    
        329.2       328.4       327.5       326.4       325.2    
  13    335.4       335.4       335.3       335.2       335.1       335.0       334.8       334.6       334.3       334.0    
        333.7       333.2       332.7       332.5       332.3       332.0       331.6       331.1       330.6       330.0    
        329.2       328.4       327.5       326.4       325.2    
  14    335.4       335.4       335.3       335.2       335.1       335.0       334.8       334.6       334.3       334.0    
        333.7       333.3       332.9       332.6       332.4       332.0       331.6       331.2       330.6       330.0    
        329.2       328.4       327.5       326.4       325.2    
  15    335.4       335.4       335.3       335.2       335.1       335.0       334.8       334.6       334.4       334.1    
        333.8       333.4       333.1       332.8       332.4       332.1       331.7       331.2       330.6       330.0    
        329.2       328.4       327.5       326.4       325.2    
  16    335.4       335.4       335.3       335.2       335.1       335.0       334.8       334.6       334.4       334.1    
        333.8       333.5       333.2       332.9       332.5       332.1       331.7       331.2       330.6       330.0    
        329.2       328.4       327.5       326.4       325.2    
  17    335.4       335.4       335.3       335.3       335.1       335.0       334.8       334.7       334.4       334.2    
        333.9       333.6       333.3       332.9       332.6       332.2       331.7       331.2       330.6       330.0    
        329.3       328.4       327.5       326.4       325.2    
  18    335.4       335.4       335.3       335.3       335.2       335.0       334.9       334.7       334.5       334.2    
        334.0       333.7       333.3       333.0       332.6       332.2       331.8       331.2       330.7       330.0    
        329.3       328.4       327.5       326.4       325.2    
  19    335.4       335.4       335.4       335.3       335.2       335.0       334.9       334.7       334.5       334.3    
        334.0       333.7       333.4       333.1       332.7       332.3       331.8       331.3       330.7       330.0    
        329.3       328.4       327.5       326.4       325.2    
  20    335.4       335.4       335.4       335.3       335.2       335.1       334.9       334.7       334.5       334.3    
        334.0       333.8       333.4       333.1       332.7       332.3       331.8       331.3       330.7       330.0    
        329.3       328.5       327.5       326.4       325.2    
  21    335.4       335.4       335.4       335.3       335.2       335.1       334.9       334.8       334.6       334.3    
        334.1       333.8       333.5       333.1       332.7       332.3       331.8       331.3       330.7       330.1    
        329.3       328.5       327.5       326.4       325.2    
  22    335.4       335.4       335.4       335.3       335.2       335.1       334.9       334.8       334.6       334.3    
        334.1       333.8       333.5       333.2       332.8       332.3       331.9       331.3       330.7       330.1    
        329.3       328.5       327.5       326.4       325.3    
  23    335.5       335.4       335.4       335.3       335.2       335.1       335.0       334.8       334.6       334.4    
        334.1       333.8       333.5       333.2       332.8       332.4       331.9       331.3       330.7       330.1    
        329.3       328.5       327.5       326.4       325.3    
  24    335.5       335.4       335.4       335.3       335.2       335.1       335.0       334.8       334.6       334.4    
        334.1       333.8       333.5       333.2       332.8       332.4       331.9       331.4       330.8       330.1    
        329.3       328.5       327.5       326.4       325.3    
  25    335.5       335.4       335.4       335.3       335.2       335.1       335.0       334.8       334.6       334.4    
        334.1       333.8       333.5       333.2       332.8       332.4       331.9       331.4       330.8       330.1    
        329.3       328.5       327.5       326.4       325.3    
1
              HEAD IN LAYER   4 AT END OF TIME STEP  10 IN STRESS PERIOD    2
  ---------------------------------------------------------------------------

            1           2           3           4           5           6           7           8           9          10
           11          12          13          14          15          16          17          18          19          20
           21          22          23          24          25
 ........................................................................................................................
   1    331.8       331.8       331.8       331.7       331.7       331.6       331.6       331.5       331.4       331.3    
        331.2       331.1       331.1       331.0       330.9       330.8       330.7       330.6       330.5       330.4    
        330.4       330.3       330.2       330.2       330.2    
   2    331.8       331.8       331.8       331.7       331.7       331.6       331.6       331.5       331.4       331.3    
        331.2       331.1       331.0       330.9       330.9       330.8       330.7       330.6       330.5       330.4    
        330.3       330.3       330.2       330.2       330.2    
   3    331.8       331.8       331.7       331.7       331.7       331.6       331.5       331.5       331.4       331.3    
        331.2       331.1       331.0       330.9       330.8       330.7       330.7       330.6       330.5       330.4    
        330.3       330.3       330.2       330.2       330.2    
   4    331.8       331.8       331.7       331.7       331.7       331.6       331.5       331.4       331.4       331.3    
        331.2       331.1       331.0       330.9       330.8       330.7       330.6       330.6       330.5       330.4    
        330.3       330.3       330.2       330.2       330.1    
   5    331.8       331.8       331.7       331.7       331.6       331.6       331.5       331.4       331.3       331.2    
        331.1       331.0       331.0       330.9       330.8       330.7       330.6       330.5       330.5       330.4    
        330.3       330.3       330.2       330.2       330.1    
   6    331.8       331.7       331.7       331.7       331.6       331.6       331.5       331.4       331.3       331.2    
        331.1       331.0       330.9       330.8       330.7       330.6       330.6       330.5       330.4       330.4    
        330.3       330.2       330.2       330.1       330.1    
   7    331.7       331.7       331.7       331.7       331.6       331.5       331.4       331.4       331.3       331.1    
        331.0       330.9       330.8       330.7       330.7       330.6       330.5       330.5       330.4       330.3    
        330.3       330.2       330.2       330.1       330.1    
   8    331.7       331.7       331.7       331.6       331.6       331.5       331.4       331.3       331.2       331.1    
        331.0       330.8       330.7       330.7       330.6       330.5       330.5       330.4       330.4       330.3    
        330.3       330.2       330.2       330.1       330.1    
   9    331.7       331.7       331.7       331.6       331.6       331.5       331.4       331.3       331.1       331.0    
        330.9       330.7       330.6       330.5       330.5       330.5       330.4       330.4       330.3       330.3    
        330.2       330.2       330.1       330.1       330.1    
  10    331.7       331.7       331.7       331.6       331.5       331.4       331.3       331.2       331.1       330.9    
        330.7       330.6       330.5       330.4       330.4       330.4       330.3       330.3       330.3       330.3    
        330.2       330.2       330.1       330.1       330.1    
  11    331.7       331.7       331.6       331.6       331.5       331.4       331.3       331.2       331.0       330.8    
        330.6       330.4       330.2       330.2       330.2       330.3       330.3       330.3       330.3       330.2    
        330.2       330.2       330.1       330.1       330.1    
  12    331.7       331.7       331.6       331.6       331.5       331.4       331.3       331.1       331.0       330.8    
        330.5       330.2       329.9       330.0       330.1       330.2       330.2       330.3       330.2       330.2    
        330.2       330.1       330.1       330.1       330.1    
  13    331.7       331.7       331.6       331.6       331.5       331.4       331.3       331.1       331.0       330.7    
        330.4       330.0       329.4       329.8       330.0       330.2       330.2       330.2       330.2       330.2    
        330.2       330.1       330.1       330.1       330.1    
  14    331.7       331.7       331.6       331.6       331.5       331.4       331.3       331.1       331.0       330.8    
        330.5       330.2       329.9       330.0       330.1       330.2       330.2       330.3       330.2       330.2    
        330.2       330.1       330.1       330.1       330.1    
  15    331.7       331.7       331.6       331.6       331.5       331.4       331.3       331.2       331.0       330.8    
        330.6       330.4       330.2       330.2       330.2       330.3       330.3       330.3       330.3       330.2    
        330.2       330.2       330.1       330.1       330.1    
  16    331.7       331.7       331.7       331.6       331.5       331.4       331.3       331.2       331.1       330.9    
        330.7       330.6       330.5       330.4       330.4       330.4       330.3       330.3       330.3       330.3    
        330.2       330.2       330.1       330.1       330.1    
  17    331.7       331.7       331.7       331.6       331.6       331.5       331.4       331.3       331.1       331.0    
        330.9       330.7       330.6       330.5       330.5       330.5       330.4       330.4       330.3       330.3    
        330.2       330.2       330.1       330.1       330.1    
  18    331.7       331.7       331.7       331.6       331.6       331.5       331.4       331.3       331.2       331.1    
        331.0       330.8       330.7       330.7       330.6       330.5       330.5       330.4       330.4       330.3    
        330.3       330.2       330.2       330.1       330.1    
  19    331.7       331.7       331.7       331.7       331.6       331.5       331.4       331.4       331.3       331.1    
        331.0       330.9       330.8       330.7       330.7       330.6       330.5       330.5       330.4       330.3    
        330.3       330.2       330.2       330.1       330.1    
  20    331.8       331.7       331.7       331.7       331.6       331.6       331.5       331.4       331.3       331.2    
        331.1       331.0       330.9       330.8       330.7       330.6       330.6       330.5       330.4       330.4    
        330.3       330.2       330.2       330.1       330.1    
  21    331.8       331.8       331.7       331.7       331.6       331.6       331.5       331.4       331.3       331.2    
        331.1       331.0       331.0       330.9       330.8       330.7       330.6       330.5       330.5       330.4    
        330.3       330.3       330.2       330.2       330.1    
  22    331.8       331.8       331.7       331.7       331.7       331.6       331.5       331.4       331.4       331.3    
        331.2       331.1       331.0       330.9       330.8       330.7       330.6       330.6       330.5       330.4    
        330.3       330.3       330.2       330.2       330.1    
  23    331.8       331.8       331.7       331.7       331.7       331.6       331.5       331.5       331.4       331.3    
        331.2       331.1       331.0       330.9       330.8       330.7       330.7       330.6       330.5       330.4    
        330.3       330.3       330.2       330.2       330.2    
  24    331.8       331.8       331.8       331.7       331.7       331.6       331.6       331.5       331.4       331.3    
        331.2       331.1       331.0       330.9       330.9       330.8       330.7       330.6       330.5       330.4    
        330.3       330.3       330.2       330.2       330.2    
  25    331.8       331.8       331.8       331.7       331.7       331.6       331.6       331.5       331.4       331.3    
        331.2       331.1       331.1       331.0       330.9       330.8       330.7       330.6       330.5       330.4    
        330.4       330.3       330.2       330.2       330.2    
1
              HEAD IN LAYER   5 AT END OF TIME STEP  10 IN STRESS PERIOD    2
  ---------------------------------------------------------------------------

            1           2           3           4           5           6           7           8           9          10
           11          12          13          14          15          16          17          18          19          20
           21          22          23          24          25
 ........................................................................................................................
   1    331.8       331.8       331.8       331.7       331.7       331.6       331.6       331.5       331.4       331.3    
        331.2       331.1       331.0       331.0       330.9       330.8       330.7       330.6       330.5       330.4    
        330.4       330.3       330.2       330.2       330.2    
   2    331.8       331.8       331.7       331.7       331.7       331.6       331.5       331.5       331.4       331.3    
        331.2       331.1       331.0       330.9       330.9       330.8       330.7       330.6       330.5       330.4    
        330.4       330.3       330.2       330.2       330.2    
   3    331.8       331.8       331.7       331.7       331.7       331.6       331.5       331.5       331.4       331.3    
        331.2       331.1       331.0       330.9       330.8       330.7       330.7       330.6       330.5       330.4    
        330.3       330.3       330.2       330.2       330.2    
   4    331.8       331.8       331.7       331.7       331.6       331.6       331.5       331.4       331.4       331.3    
        331.2       331.1       331.0       330.9       330.8       330.7       330.6       330.6       330.5       330.4    
        330.3       330.3       330.2       330.2       330.2    
   5    331.8       331.7       331.7       331.7       331.6       331.6       331.5       331.4       331.3       331.2    
        331.1       331.0       330.9       330.9       330.8       330.7       330.6       330.5       330.5       330.4    
        330.3       330.3       330.2       330.2       330.2    
   6    331.7       331.7       331.7       331.7       331.6       331.5       331.5       331.4       331.3       331.2    
        331.1       331.0       330.9       330.8       330.7       330.6       330.6       330.5       330.4       330.4    
        330.3       330.2       330.2       330.2       330.1    
   7    331.7       331.7       331.7       331.6       331.6       331.5       331.4       331.3       331.2       331.1    
        331.0       330.9       330.8       330.7       330.7       330.6       330.5       330.5       330.4       330.3    
        330.3       330.2       330.2       330.1       330.1    
   8    331.7       331.7       331.7       331.6       331.6       331.5       331.4       331.3       331.2       331.1    
        330.9       330.8       330.7       330.6       330.6       330.5       330.5       330.4       330.4       330.3    
        330.3       330.2       330.2       330.1       330.1    
   9    331.7       331.7       331.7       331.6       331.5       331.5       331.4       331.3       331.1       331.0    
        330.9       330.7       330.6       330.5       330.5       330.4       330.4       330.4       330.3       330.3    
        330.2       330.2       330.2       330.1       330.1    
  10    331.7       331.7       331.6       331.6       331.5       331.4       331.3       331.2       331.1       330.9    
        330.7       330.6       330.4       330.4       330.4       330.4       330.3       330.3       330.3       330.3    
        330.2       330.2       330.1       330.1       330.1    
  11    331.7       331.7       331.6       331.6       331.5       331.4       331.3       331.2       331.0       330.8    
        330.6       330.4       330.2       330.2       330.2       330.3       330.3       330.3       330.3       330.2    
        330.2       330.2       330.1       330.1       330.1    
  12    331.7       331.7       331.6       331.6       331.5       331.4       331.3       331.1       331.0       330.7    
        330.5       330.1       329.7       329.9       330.1       330.2       330.2       330.3       330.2       330.2    
        330.2       330.2       330.1       330.1       330.1    
  13    331.7       331.7       331.6       331.6       331.5       331.4       331.3       331.1       330.9       330.7    
        330.4       329.8       328.3       329.6       330.0       330.2       330.2       330.2       330.2       330.2    
        330.2       330.2       330.1       330.1       330.1    
  14    331.7       331.7       331.6       331.6       331.5       331.4       331.3       331.1       331.0       330.7    
        330.5       330.1       329.7       329.9       330.1       330.2       330.2       330.3       330.2       330.2    
        330.2       330.2       330.1       330.1       330.1    
  15    331.7       331.7       331.6       331.6       331.5       331.4       331.3       331.2       331.0       330.8    
        330.6       330.4       330.2       330.2       330.2       330.3       330.3       330.3       330.3       330.2    
        330.2       330.2       330.1       330.1       330.1    
  16    331.7       331.7       331.6       331.6       331.5       331.4       331.3       331.2       331.1       330.9    
        330.7       330.6       330.4       330.4       330.4       330.4       330.3       330.3       330.3       330.3    
        330.2       330.2       330.1       330.1       330.1    
  17    331.7       331.7       331.7       331.6       331.5       331.5       331.4       331.3       331.1       331.0    
        330.9       330.7       330.6       330.5       330.5       330.4       330.4       330.4       330.3       330.3    
        330.2       330.2       330.2       330.1       330.1    
  18    331.7       331.7       331.7       331.6       331.6       331.5       331.4       331.3       331.2       331.1    
        330.9       330.8       330.7       330.6       330.6       330.5       330.5       330.4       330.4       330.3    
        330.3       330.2       330.2       330.1       330.1    
  19    331.7       331.7       331.7       331.6       331.6       331.5       331.4       331.3       331.2       331.1    
        331.0       330.9       330.8       330.7       330.7       330.6       330.5       330.5       330.4       330.3    
        330.3       330.2       330.2       330.1       330.1    
  20    331.7       331.7       331.7       331.7       331.6       331.5       331.5       331.4       331.3       331.2    
        331.1       331.0       330.9       330.8       330.7       330.6       330.6       330.5       330.4       330.4    
        330.3       330.2       330.2       330.2       330.1    
  21    331.8       331.7       331.7       331.7       331.6       331.6       331.5       331.4       331.3       331.2    
        331.1       331.0       330.9       330.9       330.8       330.7       330.6       330.5       330.5       330.4    
        330.3       330.3       330.2       330.2       330.2    
  22    331.8       331.8       331.7       331.7       331.6       331.6       331.5       331.4       331.4       331.3    
        331.2       331.1       331.0       330.9       330.8       330.7       330.6       330.6       330.5       330.4    
        330.3       330.3       330.2       330.2       330.2    
  23    331.8       331.8       331.7       331.7       331.7       331.6       331.5       331.5       331.4       331.3    
        331.2       331.1       331.0       330.9       330.8       330.7       330.7       330.6       330.5       330.4    
        330.3       330.3       330.2       330.2       330.2    
  24    331.8       331.8       331.7       331.7       331.7       331.6       331.5       331.5       331.4       331.3    
        331.2       331.1       331.0       330.9       330.9       330.8       330.7       330.6       330.5       330.4    
        330.4       330.3       330.2       330.2       330.2    
  25    331.8       331.8       331.8       331.7       331.7       331.6       331.6       331.5       331.4       331.3    
        331.2       331.1       331.0       331.0       330.9       330.8       330.7       330.6       330.5       330.4    
        330.4       330.3       330.2       330.2       330.2    

 HEAD WILL BE SAVED ON UNIT   50 AT END OF TIME STEP  10, STRESS PERIOD    2
1
  VOLUMETRIC BUDGET FOR ENTIRE MODEL AT END OF TIME STEP 10 IN STRESS PERIOD   2
  ------------------------------------------------------------------------------

     CUMULATIVE VOLUMES      L**3       RATES FOR THIS TIME STEP      L**3/T
     ------------------                 ------------------------

           IN:                                      IN:
           ---                                      ---
             STORAGE =   133727768.0000               STORAGE =         387.0020
       CONSTANT HEAD =           0.0000         CONSTANT HEAD =           0.0000
               WELLS =           0.0000                 WELLS =           0.0000
       RIVER LEAKAGE =           0.0000         RIVER LEAKAGE =           0.0000
            RECHARGE =104999993344.0000              RECHARGE =      500000.0000

            TOTAL IN =105133719552.0000              TOTAL IN =      500387.0000

          OUT:                                     OUT:
          ----                                     ----
             STORAGE =           0.0000               STORAGE =           0.0000
       CONSTANT HEAD =           0.0000         CONSTANT HEAD =           0.0000
               WELLS =  1500000000.0000                 WELLS =      150000.0000
       RIVER LEAKAGE =103633928192.0000         RIVER LEAKAGE =      350416.7500
            RECHARGE =           0.0000              RECHARGE =           0.0000

           TOTAL OUT =105133924352.0000             TOTAL OUT =      500416.7500

            IN - OUT =     -204800.0000              IN - OUT =         -29.7500

 PERCENT DISCREPANCY =           0.00     PERCENT DISCREPANCY =          -0.01






          TIME SUMMARY AT END OF TIME STEP  10 IN STRESS PERIOD    2
                    SECONDS     MINUTES      HOURS       DAYS        YEARS
                    -----------------------------------------------------------
   TIME STEP LENGTH 2.93082E+08 4.88471E+06  81412.      3392.2      9.2872    
 STRESS PERIOD TIME 8.64000E+08 1.44000E+07 2.40000E+05  10000.      27.379    
         TOTAL TIME 1.81440E+10 3.02400E+08 5.04000E+06 2.10000E+05  574.95    
1
1
                            STRESS PERIOD NO.    3, LENGTH =   200000.0    
                            -----------------------------------------------

                              NUMBER OF TIME STEPS =     1

                               MULTIPLIER FOR DELT =     1.000

                            INITIAL TIME STEP SIZE =   200000.0    

 REUSING NON-PARAMETER WELLS FROM LAST STRESS PERIOD

      1 WELL 

 REUSING NON-PARAMETER RIVER REACHES FROM LAST STRESS PERIOD

     25 RIVER REACHES

 REUSING RECH FROM LAST STRESS PERIOD
 
 SOLVING FOR HEAD 


     3 CALLS TO PCG ROUTINE FOR TIME STEP   1 IN STRESS PERIOD    3
    25 TOTAL ITERATIONS

 MAXIMUM HEAD CHANGE FOR EACH ITERATION (1 INDICATES THE FIRST INNER ITERATION):

    HEAD CHANGE    HEAD CHANGE    HEAD CHANGE    HEAD CHANGE    HEAD CHANGE 
   LAYER,ROW,COL  LAYER,ROW,COL  LAYER,ROW,COL  LAYER,ROW,COL  LAYER,ROW,COL
 ---------------------------------------------------------------------------
  1 -0.1195E-01  0 -0.6579E-02  0 -0.4932E-02  0 -0.3392E-02  0 -0.2614E-02
   (  2, 25,  7)  (  2,  3,  6)  (  3, 25,  2)  (  2,  2, 14)  (  2,  1, 14)
  0 -0.2827E-02  0  0.1716E-02  0  0.1381E-02  0  0.8097E-03  0  0.4768E-03
   (  2,  1, 18)  (  3, 25, 24)  (  3,  7, 24)  (  3, 24, 24)  (  2,  2, 22)
  0  0.3782E-03  0  0.2646E-03  0 -0.2099E-03  0 -0.2276E-03  0  0.1181E-03
   (  2,  1, 22)  (  2,  1, 23)  (  3, 25, 24)  (  3, 25, 24)  (  3, 24, 13)
  0 -0.1372E-03  0 -0.9536E-04  1  0.5890E-03  0  0.2942E-03  0  0.2329E-03
   (  3, 25, 24)  (  3,  2, 24)  (  2, 25,  8)  (  2,  4,  7)  (  3, 25,  3)
  0  0.1651E-03  0  0.1492E-03  0  0.1327E-03  0  0.7827E-04  1 -0.6365E-04
   (  2,  1, 12)  (  2,  1, 13)  (  2,  1, 17)  (  3, 16,  1)  (  2, 25,  5)

 MAXIMUM RESIDUAL FOR EACH ITERATION (1 INDICATES THE FIRST INNER ITERATION):

    RESIDUAL       RESIDUAL       RESIDUAL       RESIDUAL       RESIDUAL    
   LAYER,ROW,COL  LAYER,ROW,COL  LAYER,ROW,COL  LAYER,ROW,COL  LAYER,ROW,COL
 ---------------------------------------------------------------------------
  1  -8.472      0  -8.260      0  -8.276      0  -9.523      0  -8.284    
   (  5, 25, 23)  (  2, 25, 23)  (  2, 25, 24)  (  2, 25, 24)  (  2, 25, 24)
  0   7.367      0  -7.074      0  -6.915      0  -6.603      0  -5.607    
   (  1,  6, 25)  (  2,  4, 24)  (  2,  3, 24)  (  2,  2, 24)  (  2,  2, 24)
  0  -3.885      0  -2.753      0  -1.673      0  -1.123      0 -0.9823    
   (  2,  2, 24)  (  2,  1, 24)  (  2,  1, 24)  (  2,  3, 22)  (  2,  3, 22)
  0 -0.7743      0 -0.5135      1 -0.4878      0  0.4329      0  0.3993    
   (  2,  2, 22)  (  2,  2, 22)  (  2,  2, 22)  (  1,  1, 24)  (  1,  3, 25)
  0  0.3694      0  0.3724      0  0.3187      0 -0.3104      1 -0.2612    
   (  1,  1, 25)  (  1,  1, 25)  (  1,  1, 25)  (  2,  1, 24)  (  2,  1, 24)



 OUTPUT CONTROL FOR STRESS PERIOD    3   TIME STEP   1
    PRINT BUDGET
    SAVE BUDGET
    PRINT HEAD FOR ALL LAYERS
    SAVE HEAD FOR ALL LAYERS
 UBDSV2 SAVING "   CONSTANT HEAD" ON UNIT  53 AT TIME STEP  1, STRESS PERIOD   3
 UBDSV1 SAVING "FLOW RIGHT FACE " ON UNIT  53 AT TIME STEP  1, STRESS PERIOD   3
 UBDSV1 SAVING "FLOW FRONT FACE " ON UNIT  53 AT TIME STEP  1, STRESS PERIOD   3
 UBDSV1 SAVING "FLOW LOWER FACE " ON UNIT  53 AT TIME STEP  1, STRESS PERIOD   3
 UBDSV4 SAVING "           WELLS" ON UNIT  53 AT TIME STEP  1, STRESS PERIOD   3
 UBDSV4 SAVING "   RIVER LEAKAGE" ON UNIT  53 AT TIME STEP  1, STRESS PERIOD   3
 UBDSV3 SAVING "        RECHARGE" ON UNIT  53 AT TIME STEP  1, STRESS PERIOD   3
1
              HEAD IN LAYER   1 AT END OF TIME STEP   1 IN STRESS PERIOD    3
  ---------------------------------------------------------------------------

            1           2           3           4           5           6           7           8           9          10
           11          12          13          14          15          16          17          18          19          20
           21          22          23          24          25
 ........................................................................................................................
   1    339.1       339.1       339.0       338.9       338.8       338.6       338.4       338.1       337.8       337.4    
        337.0       336.6       336.0       335.4       334.7       334.0       333.1       332.1       331.0       329.7    
        328.3       326.7       324.8       322.7       320.1    
   2    339.1       339.1       339.0       338.9       338.8       338.6       338.4       338.1       337.8       337.4    
        337.0       336.5       336.0       335.4       334.7       334.0       333.1       332.1       331.0       329.7    
        328.3       326.7       324.8       322.7       320.1    
   3    339.1       339.1       339.0       338.9       338.8       338.6       338.4       338.1       337.8       337.4    
        337.0       336.5       336.0       335.4       334.7       334.0       333.1       332.1       331.0       329.7    
        328.3       326.7       324.8       322.7       320.1    
   4    339.1       339.1       339.0       338.9       338.8       338.6       338.4       338.1       337.8       337.4    
        337.0       336.5       336.0       335.4       334.7       334.0       333.1       332.1       331.0       329.7    
        328.3       326.7       324.8       322.7       320.1    
   5    339.1       339.1       339.0       338.9       338.8       338.6       338.3       338.1       337.8       337.4    
        337.0       336.5       336.0       335.4       334.7       333.9       333.1       332.1       331.0       329.7    
        328.3       326.7       324.8       322.7       320.1    
   6    339.1       339.1       339.0       338.9       338.8       338.6       338.3       338.1       337.8       337.4    
        337.0       336.5       336.0       335.4       334.7       333.9       333.1       332.1       331.0       329.7    
        328.3       326.7       324.8       322.7       320.1    
   7    339.1       339.1       339.0       338.9       338.7       338.6       338.3       338.1       337.8       337.4    
        337.0       336.5       336.0       335.4       334.7       333.9       333.1       332.1       331.0       329.7    
        328.3       326.7       324.8       322.7       320.1    
   8    339.1       339.1       339.0       338.9       338.7       338.6       338.3       338.1       337.7       337.4    
        337.0       336.5       336.0       335.4       334.7       333.9       333.1       332.1       331.0       329.7    
        328.3       326.7       324.8       322.7       320.1    
   9    339.1       339.1       339.0       338.9       338.7       338.5       338.3       338.0       337.7       337.4    
        337.0       336.5       335.9       335.3       334.7       333.9       333.0       332.1       331.0       329.7    
        328.3       326.7       324.8       322.7       320.1    
  10    339.1       339.1       339.0       338.9       338.7       338.5       338.3       338.0       337.7       337.4    
        336.9       336.5       335.9       335.3       334.7       333.9       333.0       332.1       331.0       329.7    
        328.3       326.7       324.8       322.7       320.1    
  11    339.1       339.1       339.0       338.9       338.7       338.5       338.3       338.0       337.7       337.3    
        336.9       336.5       335.9       335.3       334.6       333.9       333.0       332.1       331.0       329.7    
        328.3       326.7       324.8       322.7       320.1    
  12    339.1       339.1       339.0       338.9       338.7       338.5       338.3       338.0       337.7       337.3    
        336.9       336.4       335.9       335.3       334.6       333.9       333.0       332.1       331.0       329.7    
        328.3       326.7       324.8       322.7       320.1    
  13    339.1       339.1       339.0       338.9       338.7       338.5       338.3       338.0       337.7       337.3    
        336.9       336.4       335.9       335.3       334.6       333.9       333.0       332.1       331.0       329.7    
        328.3       326.7       324.8       322.7       320.1    
  14    339.1       339.1       339.0       338.9       338.7       338.5       338.3       338.0       337.7       337.3    
        336.9       336.4       335.9       335.3       334.6       333.9       333.0       332.1       331.0       329.7    
        328.3       326.7       324.8       322.7       320.1    
  15    339.1       339.1       339.0       338.9       338.7       338.5       338.3       338.0       337.7       337.3    
        336.9       336.5       335.9       335.3       334.6       333.9       333.0       332.1       331.0       329.7    
        328.3       326.7       324.8       322.7       320.1    
  16    339.1       339.1       339.0       338.9       338.7       338.5       338.3       338.0       337.7       337.4    
        336.9       336.5       335.9       335.3       334.7       333.9       333.0       332.1       331.0       329.7    
        328.3       326.7       324.8       322.7       320.1    
  17    339.1       339.1       339.0       338.9       338.7       338.5       338.3       338.0       337.7       337.4    
        337.0       336.5       335.9       335.3       334.7       333.9       333.0       332.1       331.0       329.7    
        328.3       326.7       324.8       322.7       320.1    
  18    339.1       339.1       339.0       338.9       338.7       338.6       338.3       338.1       337.7       337.4    
        337.0       336.5       336.0       335.4       334.7       333.9       333.1       332.1       331.0       329.7    
        328.3       326.7       324.8       322.7       320.1    
  19    339.1       339.1       339.0       338.9       338.7       338.6       338.3       338.1       337.8       337.4    
        337.0       336.5       336.0       335.4       334.7       333.9       333.1       332.1       331.0       329.7    
        328.3       326.7       324.8       322.7       320.1    
  20    339.1       339.1       339.0       338.9       338.8       338.6       338.3       338.1       337.8       337.4    
        337.0       336.5       336.0       335.4       334.7       333.9       333.1       332.1       331.0       329.7    
        328.3       326.7       324.8       322.7       320.1    
  21    339.1       339.1       339.0       338.9       338.8       338.6       338.3       338.1       337.8       337.4    
        337.0       336.5       336.0       335.4       334.7       333.9       333.1       332.1       331.0       329.7    
        328.3       326.7       324.8       322.7       320.1    
  22    339.1       339.1       339.0       338.9       338.8       338.6       338.4       338.1       337.8       337.4    
        337.0       336.5       336.0       335.4       334.7       334.0       333.1       332.1       331.0       329.7    
        328.3       326.7       324.8       322.7       320.1    
  23    339.1       339.1       339.0       338.9       338.8       338.6       338.4       338.1       337.8       337.4    
        337.0       336.5       336.0       335.4       334.7       334.0       333.1       332.1       331.0       329.7    
        328.3       326.7       324.8       322.7       320.1    
  24    339.1       339.1       339.0       338.9       338.8       338.6       338.4       338.1       337.8       337.4    
        337.0       336.5       336.0       335.4       334.7       334.0       333.1       332.1       331.0       329.7    
        328.3       326.7       324.8       322.7       320.1    
  25    339.1       339.1       339.0       338.9       338.8       338.6       338.4       338.1       337.8       337.4    
        337.0       336.6       336.0       335.4       334.7       334.0       333.1       332.1       331.0       329.7    
        328.3       326.7       324.8       322.7       320.1    
1
              HEAD IN LAYER   2 AT END OF TIME STEP   1 IN STRESS PERIOD    3
  ---------------------------------------------------------------------------

            1           2           3           4           5           6           7           8           9          10
           11          12          13          14          15          16          17          18          19          20
           21          22          23          24          25
 ........................................................................................................................
   1    339.1       339.1       339.0       338.9       338.7       338.6       338.3       338.1       337.8       337.4    
        337.0       336.5       336.0       335.4       334.7       333.9       333.1       332.1       331.0       329.7    
        328.3       326.7       324.8       322.7       320.3    
   2    339.1       339.1       339.0       338.9       338.7       338.6       338.3       338.1       337.8       337.4    
        337.0       336.5       336.0       335.4       334.7       333.9       333.1       332.1       331.0       329.7    
        328.3       326.7       324.8       322.7       320.3    
   3    339.1       339.1       339.0       338.9       338.7       338.6       338.3       338.1       337.8       337.4    
        337.0       336.5       336.0       335.4       334.7       333.9       333.1       332.1       331.0       329.7    
        328.3       326.7       324.8       322.7       320.3    
   4    339.1       339.1       339.0       338.9       338.7       338.6       338.3       338.1       337.8       337.4    
        337.0       336.5       336.0       335.4       334.7       333.9       333.1       332.1       331.0       329.7    
        328.3       326.7       324.8       322.7       320.3    
   5    339.1       339.1       339.0       338.9       338.7       338.5       338.3       338.1       337.7       337.4    
        337.0       336.5       336.0       335.4       334.7       333.9       333.1       332.1       331.0       329.7    
        328.3       326.7       324.8       322.7       320.3    
   6    339.1       339.1       339.0       338.9       338.7       338.5       338.3       338.1       337.7       337.4    
        337.0       336.5       336.0       335.4       334.7       333.9       333.1       332.1       331.0       329.7    
        328.3       326.7       324.8       322.7       320.3    
   7    339.1       339.0       339.0       338.9       338.7       338.5       338.3       338.0       337.7       337.4    
        337.0       336.5       336.0       335.4       334.7       333.9       333.0       332.1       331.0       329.7    
        328.3       326.7       324.8       322.7       320.3    
   8    339.1       339.0       339.0       338.9       338.7       338.5       338.3       338.0       337.7       337.4    
        336.9       336.5       335.9       335.3       334.7       333.9       333.0       332.1       331.0       329.7    
        328.3       326.7       324.8       322.7       320.3    
   9    339.1       339.0       339.0       338.9       338.7       338.5       338.3       338.0       337.7       337.3    
        336.9       336.5       335.9       335.3       334.6       333.9       333.0       332.1       331.0       329.7    
        328.3       326.7       324.8       322.7       320.3    
  10    339.1       339.0       339.0       338.9       338.7       338.5       338.3       338.0       337.7       337.3    
        336.9       336.4       335.9       335.3       334.6       333.9       333.0       332.0       330.9       329.7    
        328.3       326.7       324.8       322.7       320.3    
  11    339.1       339.0       339.0       338.8       338.7       338.5       338.3       338.0       337.7       337.3    
        336.9       336.4       335.9       335.3       334.6       333.9       333.0       332.0       330.9       329.7    
        328.3       326.7       324.8       322.7       320.3    
  12    339.1       339.0       339.0       338.8       338.7       338.5       338.3       338.0       337.7       337.3    
        336.9       336.4       335.9       335.3       334.6       333.9       333.0       332.0       330.9       329.7    
        328.3       326.7       324.8       322.7       320.3    
  13    339.1       339.0       339.0       338.8       338.7       338.5       338.3       338.0       337.7       337.3    
        336.9       336.4       335.9       335.3       334.6       333.9       333.0       332.0       330.9       329.7    
        328.3       326.7       324.8       322.7       320.3    
  14    339.1       339.0       339.0       338.8       338.7       338.5       338.3       338.0       337.7       337.3    
        336.9       336.4       335.9       335.3       334.6       333.9       333.0       332.0       330.9       329.7    
        328.3       326.7       324.8       322.7       320.3    
  15    339.1       339.0       339.0       338.8       338.7       338.5       338.3       338.0       337.7       337.3    
        336.9       336.4       335.9       335.3       334.6       333.9       333.0       332.0       330.9       329.7    
        328.3       326.7       324.8       322.7       320.3    
  16    339.1       339.0       339.0       338.9       338.7       338.5       338.3       338.0       337.7       337.3    
        336.9       336.4       335.9       335.3       334.6       333.9       333.0       332.0       330.9       329.7    
        328.3       326.7       324.8       322.7       320.3    
  17    339.1       339.0       339.0       338.9       338.7       338.5       338.3       338.0       337.7       337.3    
        336.9       336.5       335.9       335.3       334.6       333.9       333.0       332.1       331.0       329.7    
        328.3       326.7       324.8       322.7       320.3    
  18    339.1       339.0       339.0       338.9       338.7       338.5       338.3       338.0       337.7       337.4    
        336.9       336.5       335.9       335.3       334.7       333.9       333.0       332.1       331.0       329.7    
        328.3       326.7       324.8       322.7       320.3    
  19    339.1       339.0       339.0       338.9       338.7       338.5       338.3       338.0       337.7       337.4    
        337.0       336.5       336.0       335.4       334.7       333.9       333.0       332.1       331.0       329.7    
        328.3       326.7       324.8       322.7       320.3    
  20    339.1       339.1       339.0       338.9       338.7       338.5       338.3       338.1       337.7       337.4    
        337.0       336.5       336.0       335.4       334.7       333.9       333.1       332.1       331.0       329.7    
        328.3       326.7       324.8       322.7       320.3    
  21    339.1       339.1       339.0       338.9       338.7       338.5       338.3       338.1       337.7       337.4    
        337.0       336.5       336.0       335.4       334.7       333.9       333.1       332.1       331.0       329.7    
        328.3       326.7       324.8       322.7       320.3    
  22    339.1       339.1       339.0       338.9       338.7       338.6       338.3       338.1       337.8       337.4    
        337.0       336.5       336.0       335.4       334.7       333.9       333.1       332.1       331.0       329.7    
        328.3       326.7       324.8       322.7       320.3    
  23    339.1       339.1       339.0       338.9       338.7       338.6       338.3       338.1       337.8       337.4    
        337.0       336.5       336.0       335.4       334.7       333.9       333.1       332.1       331.0       329.7    
        328.3       326.7       324.8       322.7       320.3    
  24    339.1       339.1       339.0       338.9       338.7       338.6       338.3       338.1       337.8       337.4    
        337.0       336.5       336.0       335.4       334.7       333.9       333.1       332.1       331.0       329.7    
        328.3       326.7       324.8       322.7       320.3    
  25    339.1       339.1       339.0       338.9       338.7       338.6       338.3       338.1       337.8       337.4    
        337.0       336.5       336.0       335.4       334.7       333.9       333.1       332.1       331.0       329.7    
        328.3       326.7       324.8       322.7       320.3    
1
              HEAD IN LAYER   3 AT END OF TIME STEP   1 IN STRESS PERIOD    3
  ---------------------------------------------------------------------------

            1           2           3           4           5           6           7           8           9          10
           11          12          13          14          15          16          17          18          19          20
           21          22          23          24          25
 ........................................................................................................................
   1    335.4       335.4       335.4       335.3       335.2       335.1       334.9       334.8       334.6       334.4    
        334.1       333.8       333.5       333.2       332.8       332.4       331.9       331.3       330.7       330.1    
        329.3       328.5       327.5       326.4       325.2    
   2    335.4       335.4       335.4       335.3       335.2       335.1       334.9       334.8       334.6       334.4    
        334.1       333.8       333.5       333.2       332.8       332.3       331.9       331.3       330.7       330.1    
        329.3       328.5       327.5       326.4       325.2    
   3    335.4       335.4       335.4       335.3       335.2       335.1       334.9       334.8       334.6       334.3    
        334.1       333.8       333.5       333.2       332.8       332.3       331.9       331.3       330.7       330.1    
        329.3       328.5       327.5       326.4       325.2    
   4    335.4       335.4       335.4       335.3       335.2       335.1       334.9       334.7       334.6       334.3    
        334.1       333.8       333.5       333.1       332.7       332.3       331.8       331.3       330.7       330.1    
        329.3       328.5       327.5       326.4       325.2    
   5    335.4       335.4       335.3       335.3       335.2       335.1       334.9       334.7       334.5       334.3    
        334.1       333.8       333.5       333.1       332.7       332.3       331.8       331.3       330.7       330.0    
        329.3       328.5       327.5       326.4       325.2    
   6    335.4       335.4       335.3       335.3       335.2       335.0       334.9       334.7       334.5       334.3    
        334.0       333.7       333.4       333.1       332.7       332.3       331.8       331.3       330.7       330.0    
        329.3       328.4       327.5       326.4       325.2    
   7    335.4       335.4       335.3       335.3       335.2       335.0       334.9       334.7       334.5       334.2    
        334.0       333.7       333.4       333.0       332.7       332.2       331.8       331.3       330.7       330.0    
        329.3       328.4       327.5       326.4       325.2    
   8    335.4       335.4       335.3       335.2       335.1       335.0       334.8       334.7       334.4       334.2    
        333.9       333.6       333.3       333.0       332.6       332.2       331.7       331.2       330.7       330.0    
        329.3       328.4       327.5       326.4       325.2    
   9    335.4       335.4       335.3       335.2       335.1       335.0       334.8       334.6       334.4       334.2    
        333.9       333.6       333.3       332.9       332.6       332.2       331.7       331.2       330.6       330.0    
        329.2       328.4       327.5       326.4       325.2    
  10    335.4       335.4       335.3       335.2       335.1       335.0       334.8       334.6       334.4       334.1    
        333.8       333.5       333.2       332.8       332.5       332.1       331.7       331.2       330.6       330.0    
        329.2       328.4       327.5       326.4       325.2    
  11    335.4       335.3       335.3       335.2       335.1       335.0       334.8       334.6       334.3       334.1    
        333.8       333.4       333.1       332.7       332.4       332.1       331.6       331.2       330.6       330.0    
        329.2       328.4       327.5       326.4       325.2    
  12    335.4       335.3       335.3       335.2       335.1       335.0       334.8       334.6       334.3       334.0    
        333.7       333.3       332.9       332.6       332.4       332.0       331.6       331.1       330.6       329.9    
        329.2       328.4       327.5       326.4       325.2    
  13    335.4       335.3       335.3       335.2       335.1       335.0       334.8       334.6       334.3       334.0    
        333.6       333.2       332.6       332.5       332.3       332.0       331.6       331.1       330.6       329.9    
        329.2       328.4       327.4       326.4       325.2    
  14    335.4       335.3       335.3       335.2       335.1       335.0       334.8       334.6       334.3       334.0    
        333.7       333.3       332.9       332.6       332.4       332.0       331.6       331.1       330.6       329.9    
        329.2       328.4       327.5       326.4       325.2    
  15    335.4       335.3       335.3       335.2       335.1       335.0       334.8       334.6       334.3       334.1    
        333.8       333.4       333.1       332.7       332.4       332.1       331.6       331.2       330.6       330.0    
        329.2       328.4       327.5       326.4       325.2    
  16    335.4       335.4       335.3       335.2       335.1       335.0       334.8       334.6       334.4       334.1    
        333.8       333.5       333.2       332.8       332.5       332.1       331.7       331.2       330.6       330.0    
        329.2       328.4       327.5       326.4       325.2    
  17    335.4       335.4       335.3       335.2       335.1       335.0       334.8       334.6       334.4       334.2    
        333.9       333.6       333.3       332.9       332.6       332.2       331.7       331.2       330.6       330.0    
        329.2       328.4       327.5       326.4       325.2    
  18    335.4       335.4       335.3       335.2       335.1       335.0       334.8       334.7       334.4       334.2    
        333.9       333.6       333.3       333.0       332.6       332.2       331.7       331.2       330.7       330.0    
        329.3       328.4       327.5       326.4       325.2    
  19    335.4       335.4       335.3       335.3       335.2       335.0       334.9       334.7       334.5       334.2    
        334.0       333.7       333.4       333.0       332.7       332.2       331.8       331.3       330.7       330.0    
        329.3       328.4       327.5       326.4       325.2    
  20    335.4       335.4       335.3       335.3       335.2       335.0       334.9       334.7       334.5       334.3    
        334.0       333.7       333.4       333.1       332.7       332.3       331.8       331.3       330.7       330.0    
        329.3       328.4       327.5       326.4       325.2    
  21    335.4       335.4       335.3       335.3       335.2       335.1       334.9       334.7       334.5       334.3    
        334.1       333.8       333.5       333.1       332.7       332.3       331.8       331.3       330.7       330.0    
        329.3       328.5       327.5       326.4       325.2    
  22    335.4       335.4       335.4       335.3       335.2       335.1       334.9       334.7       334.6       334.3    
        334.1       333.8       333.5       333.1       332.7       332.3       331.8       331.3       330.7       330.1    
        329.3       328.5       327.5       326.4       325.2    
  23    335.4       335.4       335.4       335.3       335.2       335.1       334.9       334.8       334.6       334.3    
        334.1       333.8       333.5       333.2       332.8       332.3       331.9       331.3       330.7       330.1    
        329.3       328.5       327.5       326.4       325.2    
  24    335.4       335.4       335.4       335.3       335.2       335.1       334.9       334.8       334.6       334.4    
        334.1       333.8       333.5       333.2       332.8       332.3       331.9       331.3       330.7       330.1    
        329.3       328.5       327.5       326.4       325.2    
  25    335.4       335.4       335.4       335.3       335.2       335.1       334.9       334.8       334.6       334.4    
        334.1       333.8       333.5       333.2       332.8       332.4       331.9       331.3       330.7       330.1    
        329.3       328.5       327.5       326.4       325.2    
1
              HEAD IN LAYER   4 AT END OF TIME STEP   1 IN STRESS PERIOD    3
  ---------------------------------------------------------------------------

            1           2           3           4           5           6           7           8           9          10
           11          12          13          14          15          16          17          18          19          20
           21          22          23          24          25
 ........................................................................................................................
   1    331.8       331.8       331.7       331.7       331.7       331.6       331.5       331.5       331.4       331.3    
        331.2       331.1       331.0       330.9       330.8       330.8       330.7       330.6       330.5       330.4    
        330.3       330.3       330.2       330.2       330.1    
   2    331.8       331.8       331.7       331.7       331.7       331.6       331.5       331.5       331.4       331.3    
        331.2       331.1       331.0       330.9       330.8       330.7       330.7       330.6       330.5       330.4    
        330.3       330.3       330.2       330.2       330.1    
   3    331.8       331.8       331.7       331.7       331.6       331.6       331.5       331.4       331.4       331.3    
        331.2       331.1       331.0       330.9       330.8       330.7       330.6       330.6       330.5       330.4    
        330.3       330.3       330.2       330.2       330.1    
   4    331.8       331.7       331.7       331.7       331.6       331.6       331.5       331.4       331.3       331.3    
        331.2       331.1       331.0       330.9       330.8       330.7       330.6       330.5       330.5       330.4    
        330.3       330.2       330.2       330.2       330.1    
   5    331.7       331.7       331.7       331.7       331.6       331.6       331.5       331.4       331.3       331.2    
        331.1       331.0       330.9       330.8       330.8       330.7       330.6       330.5       330.4       330.4    
        330.3       330.2       330.2       330.1       330.1    
   6    331.7       331.7       331.7       331.7       331.6       331.5       331.5       331.4       331.3       331.2    
        331.1       331.0       330.9       330.8       330.7       330.6       330.6       330.5       330.4       330.3    
        330.3       330.2       330.2       330.1       330.1    
   7    331.7       331.7       331.7       331.6       331.6       331.5       331.4       331.3       331.2       331.1    
        331.0       330.9       330.8       330.7       330.6       330.6       330.5       330.4       330.4       330.3    
        330.3       330.2       330.2       330.1       330.1    
   8    331.7       331.7       331.7       331.6       331.6       331.5       331.4       331.3       331.2       331.1    
        330.9       330.8       330.7       330.6       330.6       330.5       330.5       330.4       330.3       330.3    
        330.2       330.2       330.1       330.1       330.1    
   9    331.7       331.7       331.7       331.6       331.5       331.5       331.4       331.2       331.1       331.0    
        330.8       330.7       330.6       330.5       330.5       330.4       330.4       330.4       330.3       330.3    
        330.2       330.2       330.1       330.1       330.1    
  10    331.7       331.7       331.6       331.6       331.5       331.4       331.3       331.2       331.1       330.9    
        330.7       330.6       330.4       330.4       330.4       330.3       330.3       330.3       330.3       330.2    
        330.2       330.2       330.1       330.1       330.1    
  11    331.7       331.7       331.6       331.6       331.5       331.4       331.3       331.2       331.0       330.8    
        330.6       330.4       330.2       330.2       330.2       330.3       330.3       330.3       330.2       330.2    
        330.2       330.1       330.1       330.1       330.1    
  12    331.7       331.7       331.6       331.6       331.5       331.4       331.3       331.1       331.0       330.7    
        330.5       330.2       329.9       330.0       330.1       330.2       330.2       330.2       330.2       330.2    
        330.2       330.1       330.1       330.1       330.1    
  13    331.7       331.7       331.6       331.6       331.5       331.4       331.3       331.1       330.9       330.7    
        330.4       330.0       329.4       329.8       330.0       330.1       330.2       330.2       330.2       330.2    
        330.2       330.1       330.1       330.1       330.1    
  14    331.7       331.7       331.6       331.6       331.5       331.4       331.3       331.1       331.0       330.7    
        330.5       330.2       329.9       330.0       330.1       330.2       330.2       330.2       330.2       330.2    
        330.2       330.1       330.1       330.1       330.1    
  15    331.7       331.7       331.6       331.6       331.5       331.4       331.3       331.2       331.0       330.8    
        330.6       330.4       330.2       330.2       330.2       330.3       330.3       330.3       330.2       330.2    
        330.2       330.1       330.1       330.1       330.1    
  16    331.7       331.7       331.6       331.6       331.5       331.4       331.3       331.2       331.1       330.9    
        330.7       330.6       330.4       330.4       330.4       330.3       330.3       330.3       330.3       330.2    
        330.2       330.2       330.1       330.1       330.1    
  17    331.7       331.7       331.7       331.6       331.5       331.5       331.4       331.2       331.1       331.0    
        330.8       330.7       330.6       330.5       330.5       330.4       330.4       330.4       330.3       330.3    
        330.2       330.2       330.1       330.1       330.1    
  18    331.7       331.7       331.7       331.6       331.6       331.5       331.4       331.3       331.2       331.1    
        330.9       330.8       330.7       330.6       330.6       330.5       330.5       330.4       330.3       330.3    
        330.2       330.2       330.1       330.1       330.1    
  19    331.7       331.7       331.7       331.6       331.6       331.5       331.4       331.3       331.2       331.1    
        331.0       330.9       330.8       330.7       330.6       330.6       330.5       330.4       330.4       330.3    
        330.3       330.2       330.2       330.1       330.1    
  20    331.7       331.7       331.7       331.7       331.6       331.5       331.5       331.4       331.3       331.2    
        331.1       331.0       330.9       330.8       330.7       330.6       330.6       330.5       330.4       330.3    
        330.3       330.2       330.2       330.1       330.1    
  21    331.7       331.7       331.7       331.7       331.6       331.6       331.5       331.4       331.3       331.2    
        331.1       331.0       330.9       330.8       330.8       330.7       330.6       330.5       330.4       330.4    
        330.3       330.2       330.2       330.1       330.1    
  22    331.8       331.7       331.7       331.7       331.6       331.6       331.5       331.4       331.3       331.3    
        331.2       331.1       331.0       330.9       330.8       330.7       330.6       330.5       330.5       330.4    
        330.3       330.2       330.2       330.2       330.1    
  23    331.8       331.8       331.7       331.7       331.6       331.6       331.5       331.4       331.4       331.3    
        331.2       331.1       331.0       330.9       330.8       330.7       330.6       330.6       330.5       330.4    
        330.3       330.3       330.2       330.2       330.1    
  24    331.8       331.8       331.7       331.7       331.7       331.6       331.5       331.5       331.4       331.3    
        331.2       331.1       331.0       330.9       330.8       330.7       330.7       330.6       330.5       330.4    
        330.3       330.3       330.2       330.2       330.1    
  25    331.8       331.8       331.7       331.7       331.7       331.6       331.5       331.5       331.4       331.3    
        331.2       331.1       331.0       330.9       330.8       330.8       330.7       330.6       330.5       330.4    
        330.3       330.3       330.2       330.2       330.1    
1
              HEAD IN LAYER   5 AT END OF TIME STEP   1 IN STRESS PERIOD    3
  ---------------------------------------------------------------------------

            1           2           3           4           5           6           7           8           9          10
           11          12          13          14          15          16          17          18          19          20
           21          22          23          24          25
 ........................................................................................................................
   1    331.8       331.8       331.7       331.7       331.7       331.6       331.5       331.5       331.4       331.3    
        331.2       331.1       331.0       330.9       330.8       330.8       330.7       330.6       330.5       330.4    
        330.3       330.3       330.2       330.2       330.2    
   2    331.8       331.8       331.7       331.7       331.6       331.6       331.5       331.5       331.4       331.3    
        331.2       331.1       331.0       330.9       330.8       330.7       330.7       330.6       330.5       330.4    
        330.3       330.3       330.2       330.2       330.2    
   3    331.8       331.7       331.7       331.7       331.6       331.6       331.5       331.4       331.4       331.3    
        331.2       331.1       331.0       330.9       330.8       330.7       330.6       330.6       330.5       330.4    
        330.3       330.3       330.2       330.2       330.2    
   4    331.8       331.7       331.7       331.7       331.6       331.6       331.5       331.4       331.3       331.2    
        331.2       331.1       331.0       330.9       330.8       330.7       330.6       330.5       330.5       330.4    
        330.3       330.3       330.2       330.2       330.1    
   5    331.7       331.7       331.7       331.7       331.6       331.5       331.5       331.4       331.3       331.2    
        331.1       331.0       330.9       330.8       330.8       330.7       330.6       330.5       330.4       330.4    
        330.3       330.2       330.2       330.2       330.1    
   6    331.7       331.7       331.7       331.6       331.6       331.5       331.5       331.4       331.3       331.2    
        331.1       331.0       330.9       330.8       330.7       330.6       330.5       330.5       330.4       330.3    
        330.3       330.2       330.2       330.1       330.1    
   7    331.7       331.7       331.7       331.6       331.6       331.5       331.4       331.3       331.2       331.1    
        331.0       330.9       330.8       330.7       330.6       330.6       330.5       330.4       330.4       330.3    
        330.3       330.2       330.2       330.1       330.1    
   8    331.7       331.7       331.7       331.6       331.6       331.5       331.4       331.3       331.2       331.1    
        330.9       330.8       330.7       330.6       330.6       330.5       330.5       330.4       330.3       330.3    
        330.2       330.2       330.1       330.1       330.1    
   9    331.7       331.7       331.6       331.6       331.5       331.4       331.4       331.2       331.1       331.0    
        330.8       330.7       330.6       330.5       330.5       330.4       330.4       330.4       330.3       330.3    
        330.2       330.2       330.1       330.1       330.1    
  10    331.7       331.7       331.6       331.6       331.5       331.4       331.3       331.2       331.1       330.9    
        330.7       330.6       330.4       330.4       330.4       330.3       330.3       330.3       330.3       330.2    
        330.2       330.2       330.1       330.1       330.1    
  11    331.7       331.7       331.6       331.6       331.5       331.4       331.3       331.2       331.0       330.8    
        330.6       330.4       330.2       330.2       330.2       330.3       330.3       330.3       330.2       330.2    
        330.2       330.1       330.1       330.1       330.1    
  12    331.7       331.7       331.6       331.6       331.5       331.4       331.3       331.1       330.9       330.7    
        330.4       330.1       329.7       329.9       330.1       330.2       330.2       330.2       330.2       330.2    
        330.2       330.1       330.1       330.1       330.1    
  13    331.7       331.6       331.6       331.6       331.5       331.4       331.3       331.1       330.9       330.7    
        330.4       329.8       328.3       329.6       330.0       330.1       330.2       330.2       330.2       330.2    
        330.2       330.1       330.1       330.1       330.1    
  14    331.7       331.7       331.6       331.6       331.5       331.4       331.3       331.1       330.9       330.7    
        330.4       330.1       329.7       329.9       330.1       330.2       330.2       330.2       330.2       330.2    
        330.2       330.1       330.1       330.1       330.1    
  15    331.7       331.7       331.6       331.6       331.5       331.4       331.3       331.2       331.0       330.8    
        330.6       330.4       330.2       330.2       330.2       330.3       330.3       330.3       330.2       330.2    
        330.2       330.1       330.1       330.1       330.1    
  16    331.7       331.7       331.6       331.6       331.5       331.4       331.3       331.2       331.1       330.9    
        330.7       330.6       330.4       330.4       330.4       330.3       330.3       330.3       330.3       330.2    
        330.2       330.2       330.1       330.1       330.1    
  17    331.7       331.7       331.6       331.6       331.5       331.4       331.4       331.2       331.1       331.0    
        330.8       330.7       330.6       330.5       330.5       330.4       330.4       330.4       330.3       330.3    
        330.2       330.2       330.1       330.1       330.1    
  18    331.7       331.7       331.7       331.6       331.6       331.5       331.4       331.3       331.2       331.1    
        330.9       330.8       330.7       330.6       330.6       330.5       330.5       330.4       330.3       330.3    
        330.2       330.2       330.1       330.1       330.1    
  19    331.7       331.7       331.7       331.6       331.6       331.5       331.4       331.3       331.2       331.1    
        331.0       330.9       330.8       330.7       330.6       330.6       330.5       330.4       330.4       330.3    
        330.3       330.2       330.2       330.1       330.1    
  20    331.7       331.7       331.7       331.6       331.6       331.5       331.5       331.4       331.3       331.2    
        331.1       331.0       330.9       330.8       330.7       330.6       330.5       330.5       330.4       330.3    
        330.3       330.2       330.2       330.1       330.1    
  21    331.7       331.7       331.7       331.7       331.6       331.5       331.5       331.4       331.3       331.2    
        331.1       331.0       330.9       330.8       330.8       330.7       330.6       330.5       330.4       330.4    
        330.3       330.2       330.2       330.2       330.1    
  22    331.8       331.7       331.7       331.7       331.6       331.6       331.5       331.4       331.3       331.2    
        331.2       331.1       331.0       330.9       330.8       330.7       330.6       330.5       330.5       330.4    
        330.3       330.3       330.2       330.2       330.1    
  23    331.8       331.7       331.7       331.7       331.6       331.6       331.5       331.4       331.4       331.3    
        331.2       331.1       331.0       330.9       330.8       330.7       330.6       330.6       330.5       330.4    
        330.3       330.3       330.2       330.2       330.2    
  24    331.8       331.8       331.7       331.7       331.6       331.6       331.5       331.5       331.4       331.3    
        331.2       331.1       331.0       330.9       330.8       330.7       330.7       330.6       330.5       330.4    
        330.3       330.3       330.2       330.2       330.2    
  25    331.8       331.8       331.7       331.7       331.7       331.6       331.5       331.5       331.4       331.3    
        331.2       331.1       331.0       330.9       330.8       330.8       330.7       330.6       330.5       330.4    
        330.3       330.3       330.2       330.2       330.2    

 HEAD WILL BE SAVED ON UNIT   50 AT END OF TIME STEP   1, STRESS PERIOD    3
1
  VOLUMETRIC BUDGET FOR ENTIRE MODEL AT END OF TIME STEP  1 IN STRESS PERIOD   3
  ------------------------------------------------------------------------------

     CUMULATIVE VOLUMES      L**3       RATES FOR THIS TIME STEP      L**3/T
     ------------------                 ------------------------

           IN:                                      IN:
           ---                                      ---
             STORAGE =   133727768.0000               STORAGE =           0.0000
       CONSTANT HEAD =           0.0000         CONSTANT HEAD =           0.0000
               WELLS =           0.0000                 WELLS =           0.0000
       RIVER LEAKAGE =           0.0000         RIVER LEAKAGE =           0.0000
            RECHARGE =204999999488.0000              RECHARGE =      500000.0000

            TOTAL IN =205133725696.0000              TOTAL IN =      500000.0000

          OUT:                                     OUT:
          ----                                     ----
             STORAGE =           0.0000               STORAGE =           0.0000
       CONSTANT HEAD =           0.0000         CONSTANT HEAD =           0.0000
               WELLS = 31499999232.0000                 WELLS =      150000.0000
       RIVER LEAKAGE =173634256896.0000         RIVER LEAKAGE =      350001.6250
            RECHARGE =           0.0000              RECHARGE =           0.0000

           TOTAL OUT =205134249984.0000             TOTAL OUT =      500001.6250

            IN - OUT =     -524288.0000              IN - OUT =          -1.6250

 PERCENT DISCREPANCY =           0.00     PERCENT DISCREPANCY =           0.00






          TIME SUMMARY AT END OF TIME STEP   1 IN STRESS PERIOD    3
                    SECONDS     MINUTES      HOURS       DAYS        YEARS
                    -----------------------------------------------------------
   TIME STEP LENGTH 1.72800E+10 2.88000E+08 4.80000E+06 2.00000E+05  547.57    
 STRESS PERIOD TIME 1.72800E+10 2.88000E+08 4.80000E+06 2.00000E+05  547.57    
         TOTAL TIME 3.54240E+10 5.90400E+08 9.84000E+06 4.10000E+05  1122.5    
1

 Run end date and time (yyyy/mm/dd hh:mm:ss): 2011/10/11 16:34:27
 Elapsed run time:  0.187 Seconds

