                             MODFLOW 6 PROFESSIONAL
                U.S. GEOLOGICAL SURVEY MODULAR HYDROLOGIC MODEL
                       GROUNDWATER TRANSPORT MODEL (GWT)
                  VERSION 6.5.0.dev0 (preliminary) 07/13/2023
                               ***DEVELOP MODE***

        MODFLOW 6 compiled Oct 30 2023 08:23:02 with GCC version 11.3.0

This software is preliminary or provisional and is subject to 
revision. It is being provided to meet the need for timely best 
science. The software has not received final approval by the U.S. 
Geological Survey (USGS). No warranty, expressed or implied, is made 
by the USGS or the U.S. Government as to the functionality of the 
software and related material nor shall the fact of release 
constitute any such warranty. The software is provided on the 
condition that neither the USGS nor the U.S. Government shall be held 
liable for any damages resulting from the authorized or unauthorized 
use of the software.


As a work of the United States Government, this USGS product is 
in the public domain within the United States. You can copy, 
modify, distribute, and perform the work, even for commercial 
purposes, all without asking permission. Additionally, USGS 
waives copyright and related rights in the work worldwide 
through CC0 1.0 Universal Public Domain Dedication 
(https://creativecommons.org/publicdomain/zero/1.0/).

The following GNU Lesser General Public License (LGPL) libraries
are used in this USGS product:

    SPARSKIT version 2.0
      ilut, luson, and qsplit 
      (https://www-users.cse.umn.edu/~saad/software/SPARSKIT/)

    RCM - Reverse Cuthill McKee Ordering
      (https://people.math.sc.edu/Burkardt/f_src/rcm/rcm.html)

    BLAS - Basic Linear Algebra Subprograms Level 1
      (https://people.math.sc.edu/Burkardt/f_src/blas1_d/blas1_d.html)

    SPARSEKIT - Sparse Matrix Utility Package
      amux, dperm, dvperm, rperm, and cperm
      (https://people.sc.fsu.edu/~jburkardt/f77_src/sparsekit/sparsekit.html)

The following BSD-3 License libraries are used in this USGS product:

    Modern Fortran DAG Library
      Copyright (c) 2018, Jacob Williams
      All rights reserved.
      (https://github.com/jacobwilliams/daglib)

The following 2-clause BSD License library is used in this
USGS product:

    PETSc, the Portable, Extensible Toolkit for Scientific
    Computation Library
      Copyright (c) 1991-2021, UChicago Argonne, LLC
      and the PETSc Development Team All rights reserved.
      (https://petsc.org/release/)

MODFLOW 6 compiler options: -cpp -I src/libmf6core.a.p -I src -I ../src -I
src/libmf6_external.a.p -I
/home/mreno/.clone/external/petsc/arch-linux-c-debug/include -I
/home/mreno/.clone/external/petsc/include -I
/home/mreno/.clone/external/petsc/arch-linux-c-debug/lib -I
/home/mreno/miniconda3/envs/modflow6/include -I -fdiagnostics-color=always
-imultiarch x86_64-linux-gnu -D _FILE_OFFSET_BITS=64 -D __linux__ -D
__WITH_PETSC__ -D __WITH_MPI__ -D __WITH_NETCDF__ -mtune=generic
-march=x86-64 -g -O2 -Wall -Wpedantic -Wcharacter-truncation
-Wno-unused-dummy-argument -Wno-intrinsic-shadow -Wno-maybe-uninitialized
-Wno-uninitialized -std=f2008 -fall-intrinsics -fbacktrace -fcheck=all
-ffpe-trap=overflow,zero,invalid -ffpe-summary=overflow
-ffpe-trap=overflow,zero,invalid -fPIC -J src/libmf6core.a.p
-fpre-include=/usr/include/finclude/math-vector-fortran.h

System command used to initiate simulation:
/home/mreno/.clone/usgs/w/netcdf/2/modflow6/bin/mf6

MODFLOW was compiled using uniform precision.

Real Variables
  KIND: 8
  TINY (smallest non-zero value):    2.225074-308
  HUGE (largest value):    1.797693+308
  PRECISION: 15
  SIZE IN BITS: 64

Integer Variables
  KIND: 4
  HUGE (largest value): 2147483647
  SIZE IN BITS: 32

Long Integer Variables
  KIND: 8
  HUGE (largest value): 9223372036854775807
  SIZE IN BITS: 64

Logical Variables
  KIND: 4
  SIZE IN BITS: 32

 NAMEFILE OPTIONS:
 END NAMEFILE OPTIONS:

 DIS -- STRUCTURED GRID DISCRETIZATION PACKAGE, VERSION 2 : 3/27/2014 - INPUT READ FROM MEMPATH: __INPUT__/GWT_MST03/DIS                           

 Setting Discretization Options
 End Setting Discretization Options

 Setting Discretization Dimensions
    NLAY = 1
    NROW = 1
    NCOL = 1
 End Setting Discretization Dimensions

 Setting Discretization Griddata
    DELR set from input file
    DELC set from input file
    TOP set from input file
    BOTM set from input file
    IDOMAIN set from input file
 End Setting Discretization Griddata


 FMI -- FLOW MODEL INTERFACE,' VERSION 2, 8/17/2023
  FLOWS PROVIDED BY A GWF MODEL IN THIS SIMULATION

 ADV-- ADVECTION PACKAGE, VERSION 1, 8/25/2017 INPUT READ FROM UNIT 1010


 # File generated by Flopy version 3.5.0.dev0 on 10/30/2023 at 09:14:14.
 PROCESSING ADVECTION OPTIONS
    ADVECTION WEIGHTING SCHEME HAS BEEN SET TO: UPSTREAM
 END OF ADVECTION OPTIONS

 IC -- INITIAL CONDITIONS PACKAGE, VERSION 8, 3/28/2015 INPUT READ FROM UNIT 1008
 # File generated by Flopy version 3.5.0.dev0 on 10/30/2023 at 09:14:14.
 PROCESSING GRIDDATA

 INITIAL CONCENTRATION =   100.0000    
 END PROCESSING GRIDDATA

 MST -- MOBILE STORAGE AND TRANSFER PACKAGE, VERSION 1, 7/29/2020 INPUT READ FROM UNIT 1009


 # File generated by Flopy version 3.5.0.dev0 on 10/30/2023 at 09:14:14.
 PROCESSING MOBILE STORAGE AND TRANSFER OPTIONS
 END OF MOBILE STORAGE AND TRANSFER OPTIONS
 PROCESSING GRIDDATA

   MOBILE DOMAIN POROSITY =  0.1000000    
 END PROCESSING GRIDDATA

 SSM -- SOURCE-SINK MIXING PACKAGE, VERSION 1, 8/25/2017 INPUT READ FROM UNIT 1011


 # File generated by Flopy version 3.5.0.dev0 on 10/30/2023 at 09:14:14.
 PROCESSING SSM OPTIONS
 END OF SSM OPTIONS
 PROCESSING SOURCES
 AUX SOURCE DETECTED.
    USING AUX COLUMN 1 IN PACKAGE WEL-1
 END PROCESSING SOURCES
 OPTIONAL FILEINPUT BLOCK NOT FOUND.  CONTINUING.
      THE LAST TIME STEP WILL BE PRINTED
      THE LAST TIME STEP WILL BE PRINTED
 # File generated by Flopy version 3.5.0.dev0 on 10/30/2023 at 09:14:14.

 PROCESSING OC OPTIONS

    BUDGET INFORMATION WILL BE WRITTEN TO:
      UNIT NUMBER: 1021
      FILE NAME: gwt_mst03.cbc

 OPENED gwt_mst03.cbc
 FILE TYPE:DATA(BINARY)   UNIT 1021   STATUS:REPLACE             
 FORMAT:UNFORMATTED            ACCESS:STREAM              
 ACTION:READWRITE           

    CONCENTRATION INFORMATION WILL BE WRITTEN TO:
      UNIT NUMBER: 1022
      FILE NAME: gwt_mst03.ucn

 OPENED gwt_mst03.ucn
 FILE TYPE:DATA(BINARY)   UNIT 1022   STATUS:REPLACE             
 FORMAT:UNFORMATTED            ACCESS:STREAM              
 ACTION:READWRITE           

 END OF OC OPTIONS

start timestep kper="1" kstp="1" mode="normal"


 BEGIN READING OUTPUT CONTROL FOR STRESS PERIOD 1
      ALL TIME STEPS WILL BE SAVED
      ALL TIME STEPS WILL BE PRINTED
      ALL TIME STEPS WILL BE PRINTED

 END READING OUTPUT CONTROL FOR STRESS PERIOD 1
1
  CONCENTRATION IN LAYER   1 AT END OF TIME STEP   1 IN STRESS PERIOD    1
  ---------------------------------------------------------------------------

                1
 ................
   1      100.000    

 CONCENTRATION WILL BE SAVED ON UNIT 1022 AT END OF TIME STEP    1, STRESS PERIOD    1


  MASS BUDGET FOR ENTIRE MODEL AT END OF TIME STEP    1, STRESS PERIOD   1
  ---------------------------------------------------------------------------------------------------

     CUMULATIVE MASS      M       RATES FOR THIS TIME STEP      M/T          PACKAGE NAME    
     ------------------                 ------------------------                     ----------------

           IN:                                      IN:
           ---                                      ---
     STORAGE-AQUEOUS =         357.1429       STORAGE-AQUEOUS =        2500.0000     MST                              
                 WEL =           0.0000                   WEL =           0.0000     SSM_WEL-1                        

            TOTAL IN =         357.1429              TOTAL IN =        2500.0000

          OUT:                                     OUT:
          ----                                     ----
     STORAGE-AQUEOUS =           0.0000       STORAGE-AQUEOUS =           0.0000     MST                              
                 WEL =         357.1429                   WEL =        2500.0000     SSM_WEL-1                        

           TOTAL OUT =         357.1429             TOTAL OUT =        2500.0000

            IN - OUT =       1.0812E-10              IN - OUT =       7.5670E-10

 PERCENT DISCREPANCY =           0.00     PERCENT DISCREPANCY =           0.00




         TIME SUMMARY AT END OF TIME STEP    1 IN STRESS PERIOD    1
                    SECONDS     MINUTES      HOURS       DAYS        YEARS
                    -----------------------------------------------------------
   TIME STEP LENGTH  12343.      205.71      3.4286     0.14286     3.91122E-04
 STRESS PERIOD TIME  12343.      205.71      3.4286     0.14286     3.91122E-04
         TOTAL TIME  12343.      205.71      3.4286     0.14286     3.91122E-04


end timestep


start timestep kper="1" kstp="2" mode="normal"

1
  CONCENTRATION IN LAYER   1 AT END OF TIME STEP   2 IN STRESS PERIOD    1
  ---------------------------------------------------------------------------

                1
 ................
   1      100.000    

 CONCENTRATION WILL BE SAVED ON UNIT 1022 AT END OF TIME STEP    2, STRESS PERIOD    1


  MASS BUDGET FOR ENTIRE MODEL AT END OF TIME STEP    2, STRESS PERIOD   1
  ---------------------------------------------------------------------------------------------------

     CUMULATIVE MASS      M       RATES FOR THIS TIME STEP      M/T          PACKAGE NAME    
     ------------------                 ------------------------                     ----------------

           IN:                                      IN:
           ---                                      ---
     STORAGE-AQUEOUS =         714.2857       STORAGE-AQUEOUS =        2500.0000     MST                              
                 WEL =           0.0000                   WEL =           0.0000     SSM_WEL-1                        

            TOTAL IN =         714.2857              TOTAL IN =        2500.0000

          OUT:                                     OUT:
          ----                                     ----
     STORAGE-AQUEOUS =           0.0000       STORAGE-AQUEOUS =           0.0000     MST                              
                 WEL =         714.2857                   WEL =        2500.0000     SSM_WEL-1                        

           TOTAL OUT =         714.2857             TOTAL OUT =        2500.0000

            IN - OUT =       2.5693E-11              IN - OUT =      -5.7707E-10

 PERCENT DISCREPANCY =           0.00     PERCENT DISCREPANCY =          -0.00




         TIME SUMMARY AT END OF TIME STEP    2 IN STRESS PERIOD    1
                    SECONDS     MINUTES      HOURS       DAYS        YEARS
                    -----------------------------------------------------------
   TIME STEP LENGTH  12343.      205.71      3.4286     0.14286     3.91122E-04
 STRESS PERIOD TIME  24686.      411.43      6.8571     0.28571     7.82243E-04
         TOTAL TIME  24686.      411.43      6.8571     0.28571     7.82243E-04


end timestep


start timestep kper="1" kstp="3" mode="normal"

1
  CONCENTRATION IN LAYER   1 AT END OF TIME STEP   3 IN STRESS PERIOD    1
  ---------------------------------------------------------------------------

                1
 ................
   1      100.000    

 CONCENTRATION WILL BE SAVED ON UNIT 1022 AT END OF TIME STEP    3, STRESS PERIOD    1


  MASS BUDGET FOR ENTIRE MODEL AT END OF TIME STEP    3, STRESS PERIOD   1
  ---------------------------------------------------------------------------------------------------

     CUMULATIVE MASS      M       RATES FOR THIS TIME STEP      M/T          PACKAGE NAME    
     ------------------                 ------------------------                     ----------------

           IN:                                      IN:
           ---                                      ---
     STORAGE-AQUEOUS =        1071.4286       STORAGE-AQUEOUS =        2500.0000     MST                              
                 WEL =           0.0000                   WEL =           0.0000     SSM_WEL-1                        

            TOTAL IN =        1071.4286              TOTAL IN =        2500.0000

          OUT:                                     OUT:
          ----                                     ----
     STORAGE-AQUEOUS =           0.0000       STORAGE-AQUEOUS =           0.0000     MST                              
                 WEL =        1071.4286                   WEL =        2500.0000     SSM_WEL-1                        

           TOTAL OUT =        1071.4286             TOTAL OUT =        2500.0000

            IN - OUT =      -5.7526E-11              IN - OUT =      -5.8208E-10

 PERCENT DISCREPANCY =          -0.00     PERCENT DISCREPANCY =          -0.00




         TIME SUMMARY AT END OF TIME STEP    3 IN STRESS PERIOD    1
                    SECONDS     MINUTES      HOURS       DAYS        YEARS
                    -----------------------------------------------------------
   TIME STEP LENGTH  12343.      205.71      3.4286     0.14286     3.91122E-04
 STRESS PERIOD TIME  37029.      617.14      10.286     0.42857     1.17336E-03
         TOTAL TIME  37029.      617.14      10.286     0.42857     1.17336E-03


end timestep


start timestep kper="1" kstp="4" mode="normal"

1
  CONCENTRATION IN LAYER   1 AT END OF TIME STEP   4 IN STRESS PERIOD    1
  ---------------------------------------------------------------------------

                1
 ................
   1      100.000    

 CONCENTRATION WILL BE SAVED ON UNIT 1022 AT END OF TIME STEP    4, STRESS PERIOD    1


  MASS BUDGET FOR ENTIRE MODEL AT END OF TIME STEP    4, STRESS PERIOD   1
  ---------------------------------------------------------------------------------------------------

     CUMULATIVE MASS      M       RATES FOR THIS TIME STEP      M/T          PACKAGE NAME    
     ------------------                 ------------------------                     ----------------

           IN:                                      IN:
           ---                                      ---
     STORAGE-AQUEOUS =        1428.5714       STORAGE-AQUEOUS =        2500.0000     MST                              
                 WEL =           0.0000                   WEL =           0.0000     SSM_WEL-1                        

            TOTAL IN =        1428.5714              TOTAL IN =        2500.0000

          OUT:                                     OUT:
          ----                                     ----
     STORAGE-AQUEOUS =           0.0000       STORAGE-AQUEOUS =           0.0000     MST                              
                 WEL =        1428.5714                   WEL =        2500.0000     SSM_WEL-1                        

           TOTAL OUT =        1428.5714             TOTAL OUT =        2500.0000

            IN - OUT =      -1.4006E-10              IN - OUT =      -5.7753E-10

 PERCENT DISCREPANCY =          -0.00     PERCENT DISCREPANCY =          -0.00




         TIME SUMMARY AT END OF TIME STEP    4 IN STRESS PERIOD    1
                    SECONDS     MINUTES      HOURS       DAYS        YEARS
                    -----------------------------------------------------------
   TIME STEP LENGTH  12343.      205.71      3.4286     0.14286     3.91122E-04
 STRESS PERIOD TIME  49371.      822.86      13.714     0.57143     1.56449E-03
         TOTAL TIME  49371.      822.86      13.714     0.57143     1.56449E-03


end timestep


start timestep kper="1" kstp="5" mode="normal"

1
  CONCENTRATION IN LAYER   1 AT END OF TIME STEP   5 IN STRESS PERIOD    1
  ---------------------------------------------------------------------------

                1
 ................
   1      100.000    

 CONCENTRATION WILL BE SAVED ON UNIT 1022 AT END OF TIME STEP    5, STRESS PERIOD    1


  MASS BUDGET FOR ENTIRE MODEL AT END OF TIME STEP    5, STRESS PERIOD   1
  ---------------------------------------------------------------------------------------------------

     CUMULATIVE MASS      M       RATES FOR THIS TIME STEP      M/T          PACKAGE NAME    
     ------------------                 ------------------------                     ----------------

           IN:                                      IN:
           ---                                      ---
     STORAGE-AQUEOUS =        1785.7143       STORAGE-AQUEOUS =        2500.0000     MST                              
                 WEL =           0.0000                   WEL =           0.0000     SSM_WEL-1                        

            TOTAL IN =        1785.7143              TOTAL IN =        2500.0000

          OUT:                                     OUT:
          ----                                     ----
     STORAGE-AQUEOUS =           0.0000       STORAGE-AQUEOUS =           0.0000     MST                              
                 WEL =        1785.7143                   WEL =        2500.0000     SSM_WEL-1                        

           TOTAL OUT =        1785.7143             TOTAL OUT =        2500.0000

            IN - OUT =      -2.2283E-10              IN - OUT =      -5.7935E-10

 PERCENT DISCREPANCY =          -0.00     PERCENT DISCREPANCY =          -0.00




         TIME SUMMARY AT END OF TIME STEP    5 IN STRESS PERIOD    1
                    SECONDS     MINUTES      HOURS       DAYS        YEARS
                    -----------------------------------------------------------
   TIME STEP LENGTH  12343.      205.71      3.4286     0.14286     3.91122E-04
 STRESS PERIOD TIME  61714.      1028.6      17.143     0.71429     1.95561E-03
         TOTAL TIME  61714.      1028.6      17.143     0.71429     1.95561E-03


end timestep


start timestep kper="1" kstp="6" mode="normal"

1
  CONCENTRATION IN LAYER   1 AT END OF TIME STEP   6 IN STRESS PERIOD    1
  ---------------------------------------------------------------------------

                1
 ................
   1      100.000    

 CONCENTRATION WILL BE SAVED ON UNIT 1022 AT END OF TIME STEP    6, STRESS PERIOD    1


  MASS BUDGET FOR ENTIRE MODEL AT END OF TIME STEP    6, STRESS PERIOD   1
  ---------------------------------------------------------------------------------------------------

     CUMULATIVE MASS      M       RATES FOR THIS TIME STEP      M/T          PACKAGE NAME    
     ------------------                 ------------------------                     ----------------

           IN:                                      IN:
           ---                                      ---
     STORAGE-AQUEOUS =        2142.8571       STORAGE-AQUEOUS =        2500.0000     MST                              
                 WEL =           0.0000                   WEL =           0.0000     SSM_WEL-1                        

            TOTAL IN =        2142.8571              TOTAL IN =        2500.0000

          OUT:                                     OUT:
          ----                                     ----
     STORAGE-AQUEOUS =           0.0000       STORAGE-AQUEOUS =           0.0000     MST                              
                 WEL =        2142.8571                   WEL =        2500.0000     SSM_WEL-1                        

           TOTAL OUT =        2142.8571             TOTAL OUT =        2500.0000

            IN - OUT =      -3.0650E-10              IN - OUT =      -5.8299E-10

 PERCENT DISCREPANCY =          -0.00     PERCENT DISCREPANCY =          -0.00




         TIME SUMMARY AT END OF TIME STEP    6 IN STRESS PERIOD    1
                    SECONDS     MINUTES      HOURS       DAYS        YEARS
                    -----------------------------------------------------------
   TIME STEP LENGTH  12343.      205.71      3.4286     0.14286     3.91122E-04
 STRESS PERIOD TIME  74057.      1234.3      20.571     0.85714     2.34673E-03
         TOTAL TIME  74057.      1234.3      20.571     0.85714     2.34673E-03


end timestep


start timestep kper="1" kstp="7" mode="normal"

1
  CONCENTRATION IN LAYER   1 AT END OF TIME STEP   7 IN STRESS PERIOD    1
  ---------------------------------------------------------------------------

                1
 ................
   1      100.000    

 CONCENTRATION WILL BE SAVED ON UNIT 1022 AT END OF TIME STEP    7, STRESS PERIOD    1


  MASS BUDGET FOR ENTIRE MODEL AT END OF TIME STEP    7, STRESS PERIOD   1
  ---------------------------------------------------------------------------------------------------

     CUMULATIVE MASS      M       RATES FOR THIS TIME STEP      M/T          PACKAGE NAME    
     ------------------                 ------------------------                     ----------------

           IN:                                      IN:
           ---                                      ---
     STORAGE-AQUEOUS =        2500.0000       STORAGE-AQUEOUS =        2500.0000     MST                              
                 WEL =           0.0000                   WEL =           0.0000     SSM_WEL-1                        

            TOTAL IN =        2500.0000              TOTAL IN =        2500.0000

          OUT:                                     OUT:
          ----                                     ----
     STORAGE-AQUEOUS =           0.0000       STORAGE-AQUEOUS =           0.0000     MST                              
                 WEL =        2500.0000                   WEL =        2500.0000     SSM_WEL-1                        

           TOTAL OUT =        2500.0000             TOTAL OUT =        2500.0000

            IN - OUT =      -3.8881E-10              IN - OUT =      -5.7753E-10

 PERCENT DISCREPANCY =          -0.00     PERCENT DISCREPANCY =          -0.00




         TIME SUMMARY AT END OF TIME STEP    7 IN STRESS PERIOD    1
                    SECONDS     MINUTES      HOURS       DAYS        YEARS
                    -----------------------------------------------------------
   TIME STEP LENGTH  12343.      205.71      3.4286     0.14286     3.91122E-04
 STRESS PERIOD TIME  86400.      1440.0      24.000      1.0000     2.73785E-03
         TOTAL TIME  86400.      1440.0      24.000      1.0000     2.73785E-03


end timestep


start timestep kper="1" kstp="8" mode="normal"

1
  CONCENTRATION IN LAYER   1 AT END OF TIME STEP   8 IN STRESS PERIOD    1
  ---------------------------------------------------------------------------

                1
 ................
   1      100.000    

 CONCENTRATION WILL BE SAVED ON UNIT 1022 AT END OF TIME STEP    8, STRESS PERIOD    1


  MASS BUDGET FOR ENTIRE MODEL AT END OF TIME STEP    8, STRESS PERIOD   1
  ---------------------------------------------------------------------------------------------------

     CUMULATIVE MASS      M       RATES FOR THIS TIME STEP      M/T          PACKAGE NAME    
     ------------------                 ------------------------                     ----------------

           IN:                                      IN:
           ---                                      ---
     STORAGE-AQUEOUS =        2857.1429       STORAGE-AQUEOUS =        2500.0000     MST                              
                 WEL =           0.0000                   WEL =           0.0000     SSM_WEL-1                        

            TOTAL IN =        2857.1429              TOTAL IN =        2500.0000

          OUT:                                     OUT:
          ----                                     ----
     STORAGE-AQUEOUS =           0.0000       STORAGE-AQUEOUS =           0.0000     MST                              
                 WEL =        2857.1429                   WEL =        2500.0000     SSM_WEL-1                        

           TOTAL OUT =        2857.1429             TOTAL OUT =        2500.0000

            IN - OUT =      -4.7112E-10              IN - OUT =      -5.7844E-10

 PERCENT DISCREPANCY =          -0.00     PERCENT DISCREPANCY =          -0.00




         TIME SUMMARY AT END OF TIME STEP    8 IN STRESS PERIOD    1
                    SECONDS     MINUTES      HOURS       DAYS        YEARS
                    -----------------------------------------------------------
   TIME STEP LENGTH  12343.      205.71      3.4286     0.14286     3.91122E-04
 STRESS PERIOD TIME  98743.      1645.7      27.429      1.1429     3.12897E-03
         TOTAL TIME  98743.      1645.7      27.429      1.1429     3.12897E-03


end timestep


start timestep kper="1" kstp="9" mode="normal"

1
  CONCENTRATION IN LAYER   1 AT END OF TIME STEP   9 IN STRESS PERIOD    1
  ---------------------------------------------------------------------------

                1
 ................
   1      100.000    

 CONCENTRATION WILL BE SAVED ON UNIT 1022 AT END OF TIME STEP    9, STRESS PERIOD    1


  MASS BUDGET FOR ENTIRE MODEL AT END OF TIME STEP    9, STRESS PERIOD   1
  ---------------------------------------------------------------------------------------------------

     CUMULATIVE MASS      M       RATES FOR THIS TIME STEP      M/T          PACKAGE NAME    
     ------------------                 ------------------------                     ----------------

           IN:                                      IN:
           ---                                      ---
     STORAGE-AQUEOUS =        3214.2857       STORAGE-AQUEOUS =        2500.0000     MST                              
                 WEL =           0.0000                   WEL =           0.0000     SSM_WEL-1                        

            TOTAL IN =        3214.2857              TOTAL IN =        2500.0000

          OUT:                                     OUT:
          ----                                     ----
     STORAGE-AQUEOUS =           0.0000       STORAGE-AQUEOUS =           0.0000     MST                              
                 WEL =        3214.2857                   WEL =        2500.0000     SSM_WEL-1                        

           TOTAL OUT =        3214.2857             TOTAL OUT =        2500.0000

            IN - OUT =      -5.5434E-10              IN - OUT =      -5.8390E-10

 PERCENT DISCREPANCY =          -0.00     PERCENT DISCREPANCY =          -0.00




         TIME SUMMARY AT END OF TIME STEP    9 IN STRESS PERIOD    1
                    SECONDS     MINUTES      HOURS       DAYS        YEARS
                    -----------------------------------------------------------
   TIME STEP LENGTH  12343.      205.71      3.4286     0.14286     3.91122E-04
 STRESS PERIOD TIME 1.11086E+05  1851.4      30.857      1.2857     3.52009E-03
         TOTAL TIME 1.11086E+05  1851.4      30.857      1.2857     3.52009E-03


end timestep


start timestep kper="1" kstp="10" mode="normal"

1
  CONCENTRATION IN LAYER   1 AT END OF TIME STEP  10 IN STRESS PERIOD    1
  ---------------------------------------------------------------------------

                1
 ................
   1      100.000    

 CONCENTRATION WILL BE SAVED ON UNIT 1022 AT END OF TIME STEP   10, STRESS PERIOD    1


  MASS BUDGET FOR ENTIRE MODEL AT END OF TIME STEP   10, STRESS PERIOD   1
  ---------------------------------------------------------------------------------------------------

     CUMULATIVE MASS      M       RATES FOR THIS TIME STEP      M/T          PACKAGE NAME    
     ------------------                 ------------------------                     ----------------

           IN:                                      IN:
           ---                                      ---
     STORAGE-AQUEOUS =        3571.4286       STORAGE-AQUEOUS =        2500.0000     MST                              
                 WEL =           0.0000                   WEL =           0.0000     SSM_WEL-1                        

            TOTAL IN =        3571.4286              TOTAL IN =        2500.0000

          OUT:                                     OUT:
          ----                                     ----
     STORAGE-AQUEOUS =           0.0000       STORAGE-AQUEOUS =           0.0000     MST                              
                 WEL =        3571.4286                   WEL =        2500.0000     SSM_WEL-1                        

           TOTAL OUT =        3571.4286             TOTAL OUT =        2500.0000

            IN - OUT =      -6.3801E-10              IN - OUT =      -5.8481E-10

 PERCENT DISCREPANCY =          -0.00     PERCENT DISCREPANCY =          -0.00




         TIME SUMMARY AT END OF TIME STEP   10 IN STRESS PERIOD    1
                    SECONDS     MINUTES      HOURS       DAYS        YEARS
                    -----------------------------------------------------------
   TIME STEP LENGTH  12343.      205.71      3.4286     0.14286     3.91122E-04
 STRESS PERIOD TIME 1.23429E+05  2057.1      34.286      1.4286     3.91122E-03
         TOTAL TIME 1.23429E+05  2057.1      34.286      1.4286     3.91122E-03


end timestep


start timestep kper="1" kstp="11" mode="normal"

1
  CONCENTRATION IN LAYER   1 AT END OF TIME STEP  11 IN STRESS PERIOD    1
  ---------------------------------------------------------------------------

                1
 ................
   1      100.000    

 CONCENTRATION WILL BE SAVED ON UNIT 1022 AT END OF TIME STEP   11, STRESS PERIOD    1


  MASS BUDGET FOR ENTIRE MODEL AT END OF TIME STEP   11, STRESS PERIOD   1
  ---------------------------------------------------------------------------------------------------

     CUMULATIVE MASS      M       RATES FOR THIS TIME STEP      M/T          PACKAGE NAME    
     ------------------                 ------------------------                     ----------------

           IN:                                      IN:
           ---                                      ---
     STORAGE-AQUEOUS =        3928.5714       STORAGE-AQUEOUS =        2500.0000     MST                              
                 WEL =           0.0000                   WEL =           0.0000     SSM_WEL-1                        

            TOTAL IN =        3928.5714              TOTAL IN =        2500.0000

          OUT:                                     OUT:
          ----                                     ----
     STORAGE-AQUEOUS =           0.0000       STORAGE-AQUEOUS =           0.0000     MST                              
                 WEL =        3928.5714                   WEL =        2500.0000     SSM_WEL-1                        

           TOTAL OUT =        3928.5714             TOTAL OUT =        2500.0000

            IN - OUT =      -7.2214E-10              IN - OUT =      -5.8708E-10

 PERCENT DISCREPANCY =          -0.00     PERCENT DISCREPANCY =          -0.00




         TIME SUMMARY AT END OF TIME STEP   11 IN STRESS PERIOD    1
                    SECONDS     MINUTES      HOURS       DAYS        YEARS
                    -----------------------------------------------------------
   TIME STEP LENGTH  12343.      205.71      3.4286     0.14286     3.91122E-04
 STRESS PERIOD TIME 1.35771E+05  2262.9      37.714      1.5714     4.30234E-03
         TOTAL TIME 1.35771E+05  2262.9      37.714      1.5714     4.30234E-03


end timestep


start timestep kper="1" kstp="12" mode="normal"

1
  CONCENTRATION IN LAYER   1 AT END OF TIME STEP  12 IN STRESS PERIOD    1
  ---------------------------------------------------------------------------

                1
 ................
   1      100.000    

 CONCENTRATION WILL BE SAVED ON UNIT 1022 AT END OF TIME STEP   12, STRESS PERIOD    1


  MASS BUDGET FOR ENTIRE MODEL AT END OF TIME STEP   12, STRESS PERIOD   1
  ---------------------------------------------------------------------------------------------------

     CUMULATIVE MASS      M       RATES FOR THIS TIME STEP      M/T          PACKAGE NAME    
     ------------------                 ------------------------                     ----------------

           IN:                                      IN:
           ---                                      ---
     STORAGE-AQUEOUS =        4285.7143       STORAGE-AQUEOUS =        2500.0000     MST                              
                 WEL =           0.0000                   WEL =           0.0000     SSM_WEL-1                        

            TOTAL IN =        4285.7143              TOTAL IN =        2500.0000

          OUT:                                     OUT:
          ----                                     ----
     STORAGE-AQUEOUS =           0.0000       STORAGE-AQUEOUS =           0.0000     MST                              
                 WEL =        4285.7143                   WEL =        2500.0000     SSM_WEL-1                        

           TOTAL OUT =        4285.7143             TOTAL OUT =        2500.0000

            IN - OUT =      -8.0399E-10              IN - OUT =      -5.7662E-10

 PERCENT DISCREPANCY =          -0.00     PERCENT DISCREPANCY =          -0.00




         TIME SUMMARY AT END OF TIME STEP   12 IN STRESS PERIOD    1
                    SECONDS     MINUTES      HOURS       DAYS        YEARS
                    -----------------------------------------------------------
   TIME STEP LENGTH  12343.      205.71      3.4286     0.14286     3.91122E-04
 STRESS PERIOD TIME 1.48114E+05  2468.6      41.143      1.7143     4.69346E-03
         TOTAL TIME 1.48114E+05  2468.6      41.143      1.7143     4.69346E-03


end timestep


start timestep kper="1" kstp="13" mode="normal"

1
  CONCENTRATION IN LAYER   1 AT END OF TIME STEP  13 IN STRESS PERIOD    1
  ---------------------------------------------------------------------------

                1
 ................
   1      100.000    

 CONCENTRATION WILL BE SAVED ON UNIT 1022 AT END OF TIME STEP   13, STRESS PERIOD    1


  MASS BUDGET FOR ENTIRE MODEL AT END OF TIME STEP   13, STRESS PERIOD   1
  ---------------------------------------------------------------------------------------------------

     CUMULATIVE MASS      M       RATES FOR THIS TIME STEP      M/T          PACKAGE NAME    
     ------------------                 ------------------------                     ----------------

           IN:                                      IN:
           ---                                      ---
     STORAGE-AQUEOUS =        4642.8571       STORAGE-AQUEOUS =        2500.0000     MST                              
                 WEL =           0.0000                   WEL =           0.0000     SSM_WEL-1                        

            TOTAL IN =        4642.8571              TOTAL IN =        2500.0000

          OUT:                                     OUT:
          ----                                     ----
     STORAGE-AQUEOUS =           0.0000       STORAGE-AQUEOUS =           0.0000     MST                              
                 WEL =        4642.8571                   WEL =        2500.0000     SSM_WEL-1                        

           TOTAL OUT =        4642.8571             TOTAL OUT =        2500.0000

            IN - OUT =      -8.8676E-10              IN - OUT =      -5.7889E-10

 PERCENT DISCREPANCY =          -0.00     PERCENT DISCREPANCY =          -0.00




         TIME SUMMARY AT END OF TIME STEP   13 IN STRESS PERIOD    1
                    SECONDS     MINUTES      HOURS       DAYS        YEARS
                    -----------------------------------------------------------
   TIME STEP LENGTH  12343.      205.71      3.4286     0.14286     3.91122E-04
 STRESS PERIOD TIME 1.60457E+05  2674.3      44.571      1.8571     5.08458E-03
         TOTAL TIME 1.60457E+05  2674.3      44.571      1.8571     5.08458E-03


end timestep


start timestep kper="1" kstp="14" mode="normal"

1
  CONCENTRATION IN LAYER   1 AT END OF TIME STEP  14 IN STRESS PERIOD    1
  ---------------------------------------------------------------------------

                1
 ................
   1      100.000    

 CONCENTRATION WILL BE SAVED ON UNIT 1022 AT END OF TIME STEP   14, STRESS PERIOD    1


  MASS BUDGET FOR ENTIRE MODEL AT END OF TIME STEP   14, STRESS PERIOD   1
  ---------------------------------------------------------------------------------------------------

     CUMULATIVE MASS      M       RATES FOR THIS TIME STEP      M/T          PACKAGE NAME    
     ------------------                 ------------------------                     ----------------

           IN:                                      IN:
           ---                                      ---
     STORAGE-AQUEOUS =        5000.0000       STORAGE-AQUEOUS =        2500.0000     MST                              
                 WEL =           0.0000                   WEL =           0.0000     SSM_WEL-1                        

            TOTAL IN =        5000.0000              TOTAL IN =        2500.0000

          OUT:                                     OUT:
          ----                                     ----
     STORAGE-AQUEOUS =           0.0000       STORAGE-AQUEOUS =           0.0000     MST                              
                 WEL =        5000.0000                   WEL =        2500.0000     SSM_WEL-1                        

           TOTAL OUT =        5000.0000             TOTAL OUT =        2500.0000

            IN - OUT =      -9.6952E-10              IN - OUT =      -5.8253E-10

 PERCENT DISCREPANCY =          -0.00     PERCENT DISCREPANCY =          -0.00




         TIME SUMMARY AT END OF TIME STEP   14 IN STRESS PERIOD    1
                    SECONDS     MINUTES      HOURS       DAYS        YEARS
                    -----------------------------------------------------------
   TIME STEP LENGTH  12343.      205.71      3.4286     0.14286     3.91122E-04
 STRESS PERIOD TIME 1.72800E+05  2880.0      48.000      2.0000     5.47570E-03
         TOTAL TIME 1.72800E+05  2880.0      48.000      2.0000     5.47570E-03


end timestep


start timestep kper="2" kstp="1" mode="normal"


 END OF FILE DETECTED IN OUTPUT CONTROL.
 CURRENT OUTPUT CONTROL SETTINGS WILL BE 
 REPEATED UNTIL THE END OF THE SIMULATION.

 OUTPUT CONTROL FOR STRESS PERIOD 2 IS REPEATED USING SETTINGS FROM A PREVIOUS STRESS PERIOD.
1
  CONCENTRATION IN LAYER   1 AT END OF TIME STEP   1 IN STRESS PERIOD    2
  ---------------------------------------------------------------------------

                1
 ................
   1      93.3333    

 CONCENTRATION WILL BE SAVED ON UNIT 1022 AT END OF TIME STEP    1, STRESS PERIOD    2


  MASS BUDGET FOR ENTIRE MODEL AT END OF TIME STEP    1, STRESS PERIOD   2
  ---------------------------------------------------------------------------------------------------

     CUMULATIVE MASS      M       RATES FOR THIS TIME STEP      M/T          PACKAGE NAME    
     ------------------                 ------------------------                     ----------------

           IN:                                      IN:
           ---                                      ---
     STORAGE-AQUEOUS =        5000.0000       STORAGE-AQUEOUS =           0.0000     MST                              
                 WEL =           0.0000                   WEL =           0.0000     SSM_WEL-1                        

            TOTAL IN =        5000.0000              TOTAL IN =           0.0000

          OUT:                                     OUT:
          ----                                     ----
     STORAGE-AQUEOUS =           0.0000       STORAGE-AQUEOUS =           0.0000     MST                              
                 WEL =        5000.0000                   WEL =           0.0000     SSM_WEL-1                        

           TOTAL OUT =        5000.0000             TOTAL OUT =           0.0000

            IN - OUT =      -9.6952E-10              IN - OUT =           0.0000

 PERCENT DISCREPANCY =          -0.00     PERCENT DISCREPANCY =           0.00




         TIME SUMMARY AT END OF TIME STEP    1 IN STRESS PERIOD    2
                    SECONDS     MINUTES      HOURS       DAYS        YEARS
                    -----------------------------------------------------------
   TIME STEP LENGTH  12343.      205.71      3.4286     0.14286     3.91122E-04
 STRESS PERIOD TIME  12343.      205.71      3.4286     0.14286     3.91122E-04
         TOTAL TIME 1.85143E+05  3085.7      51.429      2.1429     5.86682E-03


end timestep


start timestep kper="2" kstp="2" mode="normal"

1
  CONCENTRATION IN LAYER   1 AT END OF TIME STEP   2 IN STRESS PERIOD    2
  ---------------------------------------------------------------------------

                1
 ................
   1      87.5000    

 CONCENTRATION WILL BE SAVED ON UNIT 1022 AT END OF TIME STEP    2, STRESS PERIOD    2


  MASS BUDGET FOR ENTIRE MODEL AT END OF TIME STEP    2, STRESS PERIOD   2
  ---------------------------------------------------------------------------------------------------

     CUMULATIVE MASS      M       RATES FOR THIS TIME STEP      M/T          PACKAGE NAME    
     ------------------                 ------------------------                     ----------------

           IN:                                      IN:
           ---                                      ---
     STORAGE-AQUEOUS =        5000.0000       STORAGE-AQUEOUS =           0.0000     MST                              
                 WEL =           0.0000                   WEL =           0.0000     SSM_WEL-1                        

            TOTAL IN =        5000.0000              TOTAL IN =           0.0000

          OUT:                                     OUT:
          ----                                     ----
     STORAGE-AQUEOUS =           0.0000       STORAGE-AQUEOUS =           0.0000     MST                              
                 WEL =        5000.0000                   WEL =           0.0000     SSM_WEL-1                        

           TOTAL OUT =        5000.0000             TOTAL OUT =           0.0000

            IN - OUT =      -9.6952E-10              IN - OUT =           0.0000

 PERCENT DISCREPANCY =          -0.00     PERCENT DISCREPANCY =           0.00




         TIME SUMMARY AT END OF TIME STEP    2 IN STRESS PERIOD    2
                    SECONDS     MINUTES      HOURS       DAYS        YEARS
                    -----------------------------------------------------------
   TIME STEP LENGTH  12343.      205.71      3.4286     0.14286     3.91122E-04
 STRESS PERIOD TIME  24686.      411.43      6.8571     0.28571     7.82243E-04
         TOTAL TIME 1.97486E+05  3291.4      54.857      2.2857     6.25794E-03


end timestep


start timestep kper="2" kstp="3" mode="normal"

1
  CONCENTRATION IN LAYER   1 AT END OF TIME STEP   3 IN STRESS PERIOD    2
  ---------------------------------------------------------------------------

                1
 ................
   1      82.3529    

 CONCENTRATION WILL BE SAVED ON UNIT 1022 AT END OF TIME STEP    3, STRESS PERIOD    2


  MASS BUDGET FOR ENTIRE MODEL AT END OF TIME STEP    3, STRESS PERIOD   2
  ---------------------------------------------------------------------------------------------------

     CUMULATIVE MASS      M       RATES FOR THIS TIME STEP      M/T          PACKAGE NAME    
     ------------------                 ------------------------                     ----------------

           IN:                                      IN:
           ---                                      ---
     STORAGE-AQUEOUS =        5000.0000       STORAGE-AQUEOUS =       7.2760E-12     MST                              
                 WEL =           0.0000                   WEL =           0.0000     SSM_WEL-1                        

            TOTAL IN =        5000.0000              TOTAL IN =       7.2760E-12

          OUT:                                     OUT:
          ----                                     ----
     STORAGE-AQUEOUS =           0.0000       STORAGE-AQUEOUS =           0.0000     MST                              
                 WEL =        5000.0000                   WEL =           0.0000     SSM_WEL-1                        

           TOTAL OUT =        5000.0000             TOTAL OUT =           0.0000

            IN - OUT =      -9.6861E-10              IN - OUT =       7.2760E-12

 PERCENT DISCREPANCY =          -0.00     PERCENT DISCREPANCY =         200.00




         TIME SUMMARY AT END OF TIME STEP    3 IN STRESS PERIOD    2
                    SECONDS     MINUTES      HOURS       DAYS        YEARS
                    -----------------------------------------------------------
   TIME STEP LENGTH  12343.      205.71      3.4286     0.14286     3.91122E-04
 STRESS PERIOD TIME  37029.      617.14      10.286     0.42857     1.17336E-03
         TOTAL TIME 2.09829E+05  3497.1      58.286      2.4286     6.64907E-03


end timestep


start timestep kper="2" kstp="4" mode="normal"

1
  CONCENTRATION IN LAYER   1 AT END OF TIME STEP   4 IN STRESS PERIOD    2
  ---------------------------------------------------------------------------

                1
 ................
   1      77.7778    

 CONCENTRATION WILL BE SAVED ON UNIT 1022 AT END OF TIME STEP    4, STRESS PERIOD    2


  MASS BUDGET FOR ENTIRE MODEL AT END OF TIME STEP    4, STRESS PERIOD   2
  ---------------------------------------------------------------------------------------------------

     CUMULATIVE MASS      M       RATES FOR THIS TIME STEP      M/T          PACKAGE NAME    
     ------------------                 ------------------------                     ----------------

           IN:                                      IN:
           ---                                      ---
     STORAGE-AQUEOUS =        5000.0000       STORAGE-AQUEOUS =       7.2760E-12     MST                              
                 WEL =           0.0000                   WEL =           0.0000     SSM_WEL-1                        

            TOTAL IN =        5000.0000              TOTAL IN =       7.2760E-12

          OUT:                                     OUT:
          ----                                     ----
     STORAGE-AQUEOUS =           0.0000       STORAGE-AQUEOUS =           0.0000     MST                              
                 WEL =        5000.0000                   WEL =           0.0000     SSM_WEL-1                        

           TOTAL OUT =        5000.0000             TOTAL OUT =           0.0000

            IN - OUT =      -9.6770E-10              IN - OUT =       7.2760E-12

 PERCENT DISCREPANCY =          -0.00     PERCENT DISCREPANCY =         200.00




         TIME SUMMARY AT END OF TIME STEP    4 IN STRESS PERIOD    2
                    SECONDS     MINUTES      HOURS       DAYS        YEARS
                    -----------------------------------------------------------
   TIME STEP LENGTH  12343.      205.71      3.4286     0.14286     3.91122E-04
 STRESS PERIOD TIME  49371.      822.86      13.714     0.57143     1.56449E-03
         TOTAL TIME 2.22171E+05  3702.9      61.714      2.5714     7.04019E-03


end timestep


start timestep kper="2" kstp="5" mode="normal"

1
  CONCENTRATION IN LAYER   1 AT END OF TIME STEP   5 IN STRESS PERIOD    2
  ---------------------------------------------------------------------------

                1
 ................
   1      73.6842    

 CONCENTRATION WILL BE SAVED ON UNIT 1022 AT END OF TIME STEP    5, STRESS PERIOD    2


  MASS BUDGET FOR ENTIRE MODEL AT END OF TIME STEP    5, STRESS PERIOD   2
  ---------------------------------------------------------------------------------------------------

     CUMULATIVE MASS      M       RATES FOR THIS TIME STEP      M/T          PACKAGE NAME    
     ------------------                 ------------------------                     ----------------

           IN:                                      IN:
           ---                                      ---
     STORAGE-AQUEOUS =        5000.0000       STORAGE-AQUEOUS =       7.2760E-12     MST                              
                 WEL =           0.0000                   WEL =           0.0000     SSM_WEL-1                        

            TOTAL IN =        5000.0000              TOTAL IN =       7.2760E-12

          OUT:                                     OUT:
          ----                                     ----
     STORAGE-AQUEOUS =           0.0000       STORAGE-AQUEOUS =           0.0000     MST                              
                 WEL =        5000.0000                   WEL =           0.0000     SSM_WEL-1                        

           TOTAL OUT =        5000.0000             TOTAL OUT =           0.0000

            IN - OUT =      -9.6679E-10              IN - OUT =       7.2760E-12

 PERCENT DISCREPANCY =          -0.00     PERCENT DISCREPANCY =         200.00




         TIME SUMMARY AT END OF TIME STEP    5 IN STRESS PERIOD    2
                    SECONDS     MINUTES      HOURS       DAYS        YEARS
                    -----------------------------------------------------------
   TIME STEP LENGTH  12343.      205.71      3.4286     0.14286     3.91122E-04
 STRESS PERIOD TIME  61714.      1028.6      17.143     0.71429     1.95561E-03
         TOTAL TIME 2.34514E+05  3908.6      65.143      2.7143     7.43131E-03


end timestep


start timestep kper="2" kstp="6" mode="normal"

1
  CONCENTRATION IN LAYER   1 AT END OF TIME STEP   6 IN STRESS PERIOD    2
  ---------------------------------------------------------------------------

                1
 ................
   1      70.0000    

 CONCENTRATION WILL BE SAVED ON UNIT 1022 AT END OF TIME STEP    6, STRESS PERIOD    2


  MASS BUDGET FOR ENTIRE MODEL AT END OF TIME STEP    6, STRESS PERIOD   2
  ---------------------------------------------------------------------------------------------------

     CUMULATIVE MASS      M       RATES FOR THIS TIME STEP      M/T          PACKAGE NAME    
     ------------------                 ------------------------                     ----------------

           IN:                                      IN:
           ---                                      ---
     STORAGE-AQUEOUS =        5000.0000       STORAGE-AQUEOUS =           0.0000     MST                              
                 WEL =           0.0000                   WEL =           0.0000     SSM_WEL-1                        

            TOTAL IN =        5000.0000              TOTAL IN =           0.0000

          OUT:                                     OUT:
          ----                                     ----
     STORAGE-AQUEOUS =           0.0000       STORAGE-AQUEOUS =           0.0000     MST                              
                 WEL =        5000.0000                   WEL =           0.0000     SSM_WEL-1                        

           TOTAL OUT =        5000.0000             TOTAL OUT =           0.0000

            IN - OUT =      -9.6679E-10              IN - OUT =           0.0000

 PERCENT DISCREPANCY =          -0.00     PERCENT DISCREPANCY =           0.00




         TIME SUMMARY AT END OF TIME STEP    6 IN STRESS PERIOD    2
                    SECONDS     MINUTES      HOURS       DAYS        YEARS
                    -----------------------------------------------------------
   TIME STEP LENGTH  12343.      205.71      3.4286     0.14286     3.91122E-04
 STRESS PERIOD TIME  74057.      1234.3      20.571     0.85714     2.34673E-03
         TOTAL TIME 2.46857E+05  4114.3      68.571      2.8571     7.82243E-03


end timestep


start timestep kper="2" kstp="7" mode="normal"

1
  CONCENTRATION IN LAYER   1 AT END OF TIME STEP   7 IN STRESS PERIOD    2
  ---------------------------------------------------------------------------

                1
 ................
   1      66.6667    

 CONCENTRATION WILL BE SAVED ON UNIT 1022 AT END OF TIME STEP    7, STRESS PERIOD    2


  MASS BUDGET FOR ENTIRE MODEL AT END OF TIME STEP    7, STRESS PERIOD   2
  ---------------------------------------------------------------------------------------------------

     CUMULATIVE MASS      M       RATES FOR THIS TIME STEP      M/T          PACKAGE NAME    
     ------------------                 ------------------------                     ----------------

           IN:                                      IN:
           ---                                      ---
     STORAGE-AQUEOUS =        5000.0000       STORAGE-AQUEOUS =           0.0000     MST                              
                 WEL =           0.0000                   WEL =           0.0000     SSM_WEL-1                        

            TOTAL IN =        5000.0000              TOTAL IN =           0.0000

          OUT:                                     OUT:
          ----                                     ----
     STORAGE-AQUEOUS =           0.0000       STORAGE-AQUEOUS =           0.0000     MST                              
                 WEL =        5000.0000                   WEL =           0.0000     SSM_WEL-1                        

           TOTAL OUT =        5000.0000             TOTAL OUT =           0.0000

            IN - OUT =      -9.6679E-10              IN - OUT =           0.0000

 PERCENT DISCREPANCY =          -0.00     PERCENT DISCREPANCY =           0.00




         TIME SUMMARY AT END OF TIME STEP    7 IN STRESS PERIOD    2
                    SECONDS     MINUTES      HOURS       DAYS        YEARS
                    -----------------------------------------------------------
   TIME STEP LENGTH  12343.      205.71      3.4286     0.14286     3.91122E-04
 STRESS PERIOD TIME  86400.      1440.0      24.000      1.0000     2.73785E-03
         TOTAL TIME 2.59200E+05  4320.0      72.000      3.0000     8.21355E-03


end timestep


start timestep kper="2" kstp="8" mode="normal"

1
  CONCENTRATION IN LAYER   1 AT END OF TIME STEP   8 IN STRESS PERIOD    2
  ---------------------------------------------------------------------------

                1
 ................
   1      63.6364    

 CONCENTRATION WILL BE SAVED ON UNIT 1022 AT END OF TIME STEP    8, STRESS PERIOD    2


  MASS BUDGET FOR ENTIRE MODEL AT END OF TIME STEP    8, STRESS PERIOD   2
  ---------------------------------------------------------------------------------------------------

     CUMULATIVE MASS      M       RATES FOR THIS TIME STEP      M/T          PACKAGE NAME    
     ------------------                 ------------------------                     ----------------

           IN:                                      IN:
           ---                                      ---
     STORAGE-AQUEOUS =        5000.0000       STORAGE-AQUEOUS =           0.0000     MST                              
                 WEL =           0.0000                   WEL =           0.0000     SSM_WEL-1                        

            TOTAL IN =        5000.0000              TOTAL IN =           0.0000

          OUT:                                     OUT:
          ----                                     ----
     STORAGE-AQUEOUS =           0.0000       STORAGE-AQUEOUS =           0.0000     MST                              
                 WEL =        5000.0000                   WEL =           0.0000     SSM_WEL-1                        

           TOTAL OUT =        5000.0000             TOTAL OUT =           0.0000

            IN - OUT =      -9.6679E-10              IN - OUT =           0.0000

 PERCENT DISCREPANCY =          -0.00     PERCENT DISCREPANCY =           0.00




         TIME SUMMARY AT END OF TIME STEP    8 IN STRESS PERIOD    2
                    SECONDS     MINUTES      HOURS       DAYS        YEARS
                    -----------------------------------------------------------
   TIME STEP LENGTH  12343.      205.71      3.4286     0.14286     3.91122E-04
 STRESS PERIOD TIME  98743.      1645.7      27.429      1.1429     3.12897E-03
         TOTAL TIME 2.71543E+05  4525.7      75.429      3.1429     8.60467E-03


end timestep


start timestep kper="2" kstp="9" mode="normal"

1
  CONCENTRATION IN LAYER   1 AT END OF TIME STEP   9 IN STRESS PERIOD    2
  ---------------------------------------------------------------------------

                1
 ................
   1      60.8696    

 CONCENTRATION WILL BE SAVED ON UNIT 1022 AT END OF TIME STEP    9, STRESS PERIOD    2


  MASS BUDGET FOR ENTIRE MODEL AT END OF TIME STEP    9, STRESS PERIOD   2
  ---------------------------------------------------------------------------------------------------

     CUMULATIVE MASS      M       RATES FOR THIS TIME STEP      M/T          PACKAGE NAME    
     ------------------                 ------------------------                     ----------------

           IN:                                      IN:
           ---                                      ---
     STORAGE-AQUEOUS =        5000.0000       STORAGE-AQUEOUS =           0.0000     MST                              
                 WEL =           0.0000                   WEL =           0.0000     SSM_WEL-1                        

            TOTAL IN =        5000.0000              TOTAL IN =           0.0000

          OUT:                                     OUT:
          ----                                     ----
     STORAGE-AQUEOUS =           0.0000       STORAGE-AQUEOUS =           0.0000     MST                              
                 WEL =        5000.0000                   WEL =           0.0000     SSM_WEL-1                        

           TOTAL OUT =        5000.0000             TOTAL OUT =           0.0000

            IN - OUT =      -9.6679E-10              IN - OUT =           0.0000

 PERCENT DISCREPANCY =          -0.00     PERCENT DISCREPANCY =           0.00




         TIME SUMMARY AT END OF TIME STEP    9 IN STRESS PERIOD    2
                    SECONDS     MINUTES      HOURS       DAYS        YEARS
                    -----------------------------------------------------------
   TIME STEP LENGTH  12343.      205.71      3.4286     0.14286     3.91122E-04
 STRESS PERIOD TIME 1.11086E+05  1851.4      30.857      1.2857     3.52009E-03
         TOTAL TIME 2.83886E+05  4731.4      78.857      3.2857     8.99580E-03


end timestep


start timestep kper="2" kstp="10" mode="normal"

1
  CONCENTRATION IN LAYER   1 AT END OF TIME STEP  10 IN STRESS PERIOD    2
  ---------------------------------------------------------------------------

                1
 ................
   1      58.3333    

 CONCENTRATION WILL BE SAVED ON UNIT 1022 AT END OF TIME STEP   10, STRESS PERIOD    2


  MASS BUDGET FOR ENTIRE MODEL AT END OF TIME STEP   10, STRESS PERIOD   2
  ---------------------------------------------------------------------------------------------------

     CUMULATIVE MASS      M       RATES FOR THIS TIME STEP      M/T          PACKAGE NAME    
     ------------------                 ------------------------                     ----------------

           IN:                                      IN:
           ---                                      ---
     STORAGE-AQUEOUS =        5000.0000       STORAGE-AQUEOUS =           0.0000     MST                              
                 WEL =           0.0000                   WEL =           0.0000     SSM_WEL-1                        

            TOTAL IN =        5000.0000              TOTAL IN =           0.0000

          OUT:                                     OUT:
          ----                                     ----
     STORAGE-AQUEOUS =           0.0000       STORAGE-AQUEOUS =           0.0000     MST                              
                 WEL =        5000.0000                   WEL =           0.0000     SSM_WEL-1                        

           TOTAL OUT =        5000.0000             TOTAL OUT =           0.0000

            IN - OUT =      -9.6679E-10              IN - OUT =           0.0000

 PERCENT DISCREPANCY =          -0.00     PERCENT DISCREPANCY =           0.00




         TIME SUMMARY AT END OF TIME STEP   10 IN STRESS PERIOD    2
                    SECONDS     MINUTES      HOURS       DAYS        YEARS
                    -----------------------------------------------------------
   TIME STEP LENGTH  12343.      205.71      3.4286     0.14286     3.91122E-04
 STRESS PERIOD TIME 1.23429E+05  2057.1      34.286      1.4286     3.91122E-03
         TOTAL TIME 2.96229E+05  4937.1      82.286      3.4286     9.38692E-03


end timestep


start timestep kper="2" kstp="11" mode="normal"

1
  CONCENTRATION IN LAYER   1 AT END OF TIME STEP  11 IN STRESS PERIOD    2
  ---------------------------------------------------------------------------

                1
 ................
   1      56.0000    

 CONCENTRATION WILL BE SAVED ON UNIT 1022 AT END OF TIME STEP   11, STRESS PERIOD    2


  MASS BUDGET FOR ENTIRE MODEL AT END OF TIME STEP   11, STRESS PERIOD   2
  ---------------------------------------------------------------------------------------------------

     CUMULATIVE MASS      M       RATES FOR THIS TIME STEP      M/T          PACKAGE NAME    
     ------------------                 ------------------------                     ----------------

           IN:                                      IN:
           ---                                      ---
     STORAGE-AQUEOUS =        5000.0000       STORAGE-AQUEOUS =           0.0000     MST                              
                 WEL =           0.0000                   WEL =           0.0000     SSM_WEL-1                        

            TOTAL IN =        5000.0000              TOTAL IN =           0.0000

          OUT:                                     OUT:
          ----                                     ----
     STORAGE-AQUEOUS =           0.0000       STORAGE-AQUEOUS =           0.0000     MST                              
                 WEL =        5000.0000                   WEL =           0.0000     SSM_WEL-1                        

           TOTAL OUT =        5000.0000             TOTAL OUT =           0.0000

            IN - OUT =      -9.6679E-10              IN - OUT =           0.0000

 PERCENT DISCREPANCY =          -0.00     PERCENT DISCREPANCY =           0.00




         TIME SUMMARY AT END OF TIME STEP   11 IN STRESS PERIOD    2
                    SECONDS     MINUTES      HOURS       DAYS        YEARS
                    -----------------------------------------------------------
   TIME STEP LENGTH  12343.      205.71      3.4286     0.14286     3.91122E-04
 STRESS PERIOD TIME 1.35771E+05  2262.9      37.714      1.5714     4.30234E-03
         TOTAL TIME 3.08571E+05  5142.9      85.714      3.5714     9.77804E-03


end timestep


start timestep kper="2" kstp="12" mode="normal"

1
  CONCENTRATION IN LAYER   1 AT END OF TIME STEP  12 IN STRESS PERIOD    2
  ---------------------------------------------------------------------------

                1
 ................
   1      53.8462    

 CONCENTRATION WILL BE SAVED ON UNIT 1022 AT END OF TIME STEP   12, STRESS PERIOD    2


  MASS BUDGET FOR ENTIRE MODEL AT END OF TIME STEP   12, STRESS PERIOD   2
  ---------------------------------------------------------------------------------------------------

     CUMULATIVE MASS      M       RATES FOR THIS TIME STEP      M/T          PACKAGE NAME    
     ------------------                 ------------------------                     ----------------

           IN:                                      IN:
           ---                                      ---
     STORAGE-AQUEOUS =        5000.0000       STORAGE-AQUEOUS =           0.0000     MST                              
                 WEL =           0.0000                   WEL =           0.0000     SSM_WEL-1                        

            TOTAL IN =        5000.0000              TOTAL IN =           0.0000

          OUT:                                     OUT:
          ----                                     ----
     STORAGE-AQUEOUS =           0.0000       STORAGE-AQUEOUS =           0.0000     MST                              
                 WEL =        5000.0000                   WEL =           0.0000     SSM_WEL-1                        

           TOTAL OUT =        5000.0000             TOTAL OUT =           0.0000

            IN - OUT =      -9.6679E-10              IN - OUT =           0.0000

 PERCENT DISCREPANCY =          -0.00     PERCENT DISCREPANCY =           0.00




         TIME SUMMARY AT END OF TIME STEP   12 IN STRESS PERIOD    2
                    SECONDS     MINUTES      HOURS       DAYS        YEARS
                    -----------------------------------------------------------
   TIME STEP LENGTH  12343.      205.71      3.4286     0.14286     3.91122E-04
 STRESS PERIOD TIME 1.48114E+05  2468.6      41.143      1.7143     4.69346E-03
         TOTAL TIME 3.20914E+05  5348.6      89.143      3.7143     1.01692E-02


end timestep


start timestep kper="2" kstp="13" mode="normal"

1
  CONCENTRATION IN LAYER   1 AT END OF TIME STEP  13 IN STRESS PERIOD    2
  ---------------------------------------------------------------------------

                1
 ................
   1      51.8519    

 CONCENTRATION WILL BE SAVED ON UNIT 1022 AT END OF TIME STEP   13, STRESS PERIOD    2


  MASS BUDGET FOR ENTIRE MODEL AT END OF TIME STEP   13, STRESS PERIOD   2
  ---------------------------------------------------------------------------------------------------

     CUMULATIVE MASS      M       RATES FOR THIS TIME STEP      M/T          PACKAGE NAME    
     ------------------                 ------------------------                     ----------------

           IN:                                      IN:
           ---                                      ---
     STORAGE-AQUEOUS =        5000.0000       STORAGE-AQUEOUS =           0.0000     MST                              
                 WEL =           0.0000                   WEL =           0.0000     SSM_WEL-1                        

            TOTAL IN =        5000.0000              TOTAL IN =           0.0000

          OUT:                                     OUT:
          ----                                     ----
     STORAGE-AQUEOUS =           0.0000       STORAGE-AQUEOUS =           0.0000     MST                              
                 WEL =        5000.0000                   WEL =           0.0000     SSM_WEL-1                        

           TOTAL OUT =        5000.0000             TOTAL OUT =           0.0000

            IN - OUT =      -9.6679E-10              IN - OUT =           0.0000

 PERCENT DISCREPANCY =          -0.00     PERCENT DISCREPANCY =           0.00




         TIME SUMMARY AT END OF TIME STEP   13 IN STRESS PERIOD    2
                    SECONDS     MINUTES      HOURS       DAYS        YEARS
                    -----------------------------------------------------------
   TIME STEP LENGTH  12343.      205.71      3.4286     0.14286     3.91122E-04
 STRESS PERIOD TIME 1.60457E+05  2674.3      44.571      1.8571     5.08458E-03
         TOTAL TIME 3.33257E+05  5554.3      92.571      3.8571     1.05603E-02


end timestep


start timestep kper="2" kstp="14" mode="normal"

1
  CONCENTRATION IN LAYER   1 AT END OF TIME STEP  14 IN STRESS PERIOD    2
  ---------------------------------------------------------------------------

                1
 ................
   1      50.0000    

 CONCENTRATION WILL BE SAVED ON UNIT 1022 AT END OF TIME STEP   14, STRESS PERIOD    2


  MASS BUDGET FOR ENTIRE MODEL AT END OF TIME STEP   14, STRESS PERIOD   2
  ---------------------------------------------------------------------------------------------------

     CUMULATIVE MASS      M       RATES FOR THIS TIME STEP      M/T          PACKAGE NAME    
     ------------------                 ------------------------                     ----------------

           IN:                                      IN:
           ---                                      ---
     STORAGE-AQUEOUS =        5000.0000       STORAGE-AQUEOUS =           0.0000     MST                              
                 WEL =           0.0000                   WEL =           0.0000     SSM_WEL-1                        

            TOTAL IN =        5000.0000              TOTAL IN =           0.0000

          OUT:                                     OUT:
          ----                                     ----
     STORAGE-AQUEOUS =           0.0000       STORAGE-AQUEOUS =           0.0000     MST                              
                 WEL =        5000.0000                   WEL =           0.0000     SSM_WEL-1                        

           TOTAL OUT =        5000.0000             TOTAL OUT =           0.0000

            IN - OUT =      -9.6679E-10              IN - OUT =           0.0000

 PERCENT DISCREPANCY =          -0.00     PERCENT DISCREPANCY =           0.00




         TIME SUMMARY AT END OF TIME STEP   14 IN STRESS PERIOD    2
                    SECONDS     MINUTES      HOURS       DAYS        YEARS
                    -----------------------------------------------------------
   TIME STEP LENGTH  12343.      205.71      3.4286     0.14286     3.91122E-04
 STRESS PERIOD TIME 1.72800E+05  2880.0      48.000      2.0000     5.47570E-03
         TOTAL TIME 3.45600E+05  5760.0      96.000      4.0000     1.09514E-02


end timestep

