 LISTING FILE: CrnkNic.mt3d.list
                         UNIT   2

 OPENING CrnkNic.ftl
 FILE TYPE:FTL   UNIT  39

 OPENING CrnkNic.btn
 FILE TYPE:BTN   UNIT  31

 OPENING CrnkNic.adv
 FILE TYPE:ADV   UNIT  32

 OPENING CrnkNic.gcg
 FILE TYPE:GCG   UNIT  35

 OPENING CrnkNic.ssm
 FILE TYPE:SSM   UNIT  34

 OPENING CrnkNic.sft
 FILE TYPE:SFT   UNIT  19

 OPENING CrnkNic.sftobs
 FILE TYPE:DATA   UNIT  82

                              +++++++++++++++++++++++++++++++++++++++++++++++++++++++++++++++++++++++
                              +                                                                     +
                              +                              MT3D-USGS                              +
                              +             A Modular 3D Multi-Species Transport Model              +
                              +    For Simulation of Advection, Dispersion and Chemical Reactions   +
                              +                of Contaminants in Groundwater Systems               +
                              +                                                                     +
                              +++++++++++++++++++++++++++++++++++++++++++++++++++++++++++++++++++++++

  ----- 
 | M T | ## BTN for MT3DMS, generated by Flopy.                                          
 | 3 D | ##                                                                              
  ----- 
 THE TRANSPORT MODEL CONSISTS OF     1 LAYER(S)    3 ROW(S)  650 COLUMN(S)
 NUMBER OF STRESS PERIOD(S) FOR TRANSPORT SIMULATION =    3
 NUMBER OF ALL COMPONENTS INCLUDED IN SIMULATION =    1
 NUMBER OF MOBILE COMPONENTS INCLUDED IN SIMULATION =    1
 UNIT FOR TIME IS D   ;  UNIT FOR LENGTH IS M   ;  UNIT FOR MASS IS KG  
 OPTIONAL PACKAGES INCLUDED IN CURRENT SIMULATION:
  o ADV   ON UNIT 32
  o SSM   ON UNIT 34
  o GCG   ON UNIT 35
  o SFT   ON UNIT 19


 BTN1 -- BASIC TRANSPORT PACKAGE, VERSION 1, MAY 2016, INPUT READ FROM UNIT 31

 BTN PACKAGE KEYWORD INPUT: 
 DRYCELL OPTION NOT SET
  DRY CELL BUDGET OMITTED FROM GLOBAL MASS BALANCE SUMMARY

 LAYER NUMBER  AQUIFER TYPE
 ------------  ------------
       1            1
                                       WIDTH ALONG ROWS (DELR)  =   1.000000    
                                       WIDTH ALONG COLS (DELC)  =   5.000000    

                           TOP ELEV. OF 1ST LAYER   READ ON UNIT  31 USING FORMAT: "         (650E15.6) "
                           -----------------------------------------------------------------------------

                     CELL THICKNESS (DZ)      FOR LAYER  1 READ ON UNIT  31 USING FORMAT: "         (650E15.6) "
                     ------------------------------------------------------------------------------------------
                                       POROSITY                 =  0.2000000     FOR LAYER  1
                                       CONCN. BOUNDARY ARRAY    =              1 FOR LAYER  1
                                       INITIAL CONC.: COMP.  01 =   3.700000     FOR LAYER  1

 VALUE INDICATING INACTIVE CONCENTRATION CELLS =   -1.000000    
 MINIMUM SATURATED THICKNESS [THKMIN] ALLOWED =  0.0010000 OF TOTAL CELL THICKNESS


 OUTPUT CONTROL OPTIONS
 ----------------------

 DO NOT PRINT CELL CONCENTRATION
 DO NOT PRINT PARTICLE NUMBER IN EACH CELL
 DO NOT PRINT RETARDATION FACTOR
 DO NOT PRINT DISPERSION COEFFICIENT
 SAVE DISSOLVED PHASE CONCENTRATIONS IN UNFORMATTED FILES [MT3Dnnn.UCN]
  FOR EACH SPECIES ON UNITS 201 AND ABOVE

 SIMULATION RESULTS ARE SAVED EVERY   1 TRANSPORT STEP(S)

 NUMBER OF OBSERVATION POINTS =    0

 SAVE ONE-LINE SUMMARY OF MASS BUDGETS IN FILES [MT3Dnnn.MAS]
  FOR EACH SPECIES ON UNITS 601 AND ABOVE, EVERY 10 TRANSPORT STEPS

 MAXIMUM LENGTH ALONG THE X (J) AXIS =   650.0000    
 MAXIMUM LENGTH ALONG THE Y (I) AXIS =   15.00000    
 MAXIMUM LENGTH ALONG THE Z (K) AXIS =   3.000000    
 FMI1 -- FLOW MODEL INTERFACE PACKAGE, VERSION 1, MAY 2016, INPUT READ FROM UNIT 39
 FLOW MODEL IS TRANSIENT
 FLOW MODEL CONTAINS CONSTANT-HEAD CELLS


 ADV1 -- ADVECTION PACKAGE, VERSION 1, MAY 2016, INPUT READ FROM UNIT 32
 ADVECTION IS SOLVED WITH THE UPSTREAM FINITE DIFFERENCE SCHEME
 COURANT NUMBER ALLOWED IN SOLVING THE ADVECTION TERM =  1.00    


 ADVECTION SOLUTION OPTIONS
 --------------------------

 ADVECTION IS SOLVED WITH THE UPSTREAM FINITE DIFFERENCE SCHEME
 COURANT NUMBER ALLOWED IN SOLVING THE ADVECTION TERM =  1.00    

 SSM1 -- SINK & SOURCE MIXING PACKAGE, VERSION 1, MAY 2016, INPUT READ FROM UNIT 34
 HEADER LINE OF THE SSM PACKAGE INPUT FILE:
  F F F F F F F F F F                                                    
 MAJOR STRESS COMPONENTS PRESENT IN THE FLOW MODEL:
 MAXIMUM NUMBER OF POINT SINKS/SOURCES =    1300

 GCG1 -- GENERALIZED CONJUGATE GRADIENT SOLVER PACKAGE, VERSION 1, OCTOBER 2010 INPUT READ FROM UNIT 35
 MAXIMUM OF   10 OUTER ITERATIONS
        AND   50 INNER ITERATIONS ALLOWED FOR CLOSURE
 THE PRECONDITIONING TYPE SELECTED IS MODIFIED INCOMPLETE CHOLESKY (MIC).
 DISPERSION CROSS TERMS LUMPED INTO RIGHT-HAND-SIDE



                                               SOLUTION BY THE GENERALIZED CONJUGATE GRADIENT METHOD
                                               -----------------------------------------------------
                                     MAXIMUM OUTER ITERATIONS ALLOWED FOR CLOSURE =       10
                                     MAXIMUM INNER ITERATIONS ALLOWED FOR CLOSURE =       50
                                                    PRECONDITIONING TYPE SELECTED =    3
                                                           ACCELERATION PARAMETER =     1.0000    
                                       CONCENTRATION CHANGE CRITERION FOR CLOSURE =    0.10000E-05
                                       GCG CONCENTRATION CHANGE PRINTOUT INTERVAL =        1

 SFT1 -- STREAM TRANSPORT PACKAGE, VERSION 1, MAY 2016, INPUT READ FROM UNIT 19
 NUMBER OF STREAMS =   650
 MAXIMUM NUMBER OF STREAM BOUNDARY CONDITIONS =   650
 RCH-BY-RCH INFORMATION WILL BE PRINTED ON UNIT    81
 STREAM-FLOW OBSERVATION OUTPUT  WILL BE SAVED IN UNIT:  82
 STEADY-STATE SFR FLOW SOLUTION IS USED; MASS WILL BE GAINED/LOST
 MASS IS ALLOWED TO EXIT VIA STREAM ET


 STREAM INPUT PARAMETERS
 -----------------------

 STREAM SOLVER OPTION =     1
   1 = FINITE DIFFERENCE FORMULATION
 STREAM SOLVER TIME WEIGHTING FACTOR =  0.50000    
   0.0 = EXPLICIT SCHEME IS USED
   0.5 = CRANK-NICOLSON SCHEME IS USED
   1.0 = FULLY IMPLICIT SCHEME IS USED
 STREAM SOLVER SPACE WEIGHTING FACTOR =   1.0000    
   0.0 = CENTRAL-IN-SPACE WEIGHTING
   1.0 = UPSTREAM WEIGHTING
 CLOSURE CRITERION FOR SFT SOLVER =  0.10000E-05
 MAXIMUM NUMBER OF SFR ITERATIONS =    10
 COURANT CONSTRAINT FOR SFR TIME-STEP =   1.0000    
 PRINT OPTION FOR xMD SOLVER =            0
                                       STRM INIT CONC COMP# 001 =   3.700000    

                           DISP COEF L2/T COMP# 001 READ ON UNIT  19 USING FORMAT: "          (10E15.6) "
                           -----------------------------------------------------------------------------


                                   ++++++++++++++++++++++++++++++++++++++++++++++++++++++++++++++
                                                       STRESS PERIOD NO.  001
                                   ++++++++++++++++++++++++++++++++++++++++++++++++++++++++++++++


 LENGTH OF CURRENT STRESS PERIOD =   30600.00    
 NUMBER OF TIME STEPS FOR CURRENT STRESS PERIOD =    1
 TIME STEP MULTIPLIER USED IN FLOW SOLUTION =   1.000000    

 ***Type of Transport Simulation is TRANSIENT

 USER-SPECIFIED TRANSPORT STEPSIZE =   180.0000    D   
 MAXIMUM NUMBER OF TRANSPORT STEPS ALLOWED  IN ONE FLOW TIME STEP =      2500
 MULTIPLIER FOR SUCCESSIVE TRANSPORT STEPS  [USED IN IMPLICIT SCHEMES] =     1.000
 MAXIMUM TRANSPORT STEP SIZE  [USED IN IMPLICIT SCHEMES] =   0.000000    D   

       NO    LAYER   ROW   COLUMN   CONCENTRATION       TYPE            COMPONENT
       1       1       1       1       3.700000         CONSTANT HEAD       1
       2       1       3       1       3.700000         CONSTANT HEAD       1
       3       1       1       2       3.700000         CONSTANT HEAD       1
       4       1       1       3       3.700000         CONSTANT HEAD       1
       5       1       1       4       3.700000         CONSTANT HEAD       1
       6       1       1       5       3.700000         CONSTANT HEAD       1
       7       1       1       6       3.700000         CONSTANT HEAD       1
       8       1       1       7       3.700000         CONSTANT HEAD       1
       9       1       1       8       3.700000         CONSTANT HEAD       1
      10       1       1       9       3.700000         CONSTANT HEAD       1
      11       1       1      10       3.700000         CONSTANT HEAD       1
      12       1       1      11       3.700000         CONSTANT HEAD       1
      13       1       1      12       3.700000         CONSTANT HEAD       1
      14       1       1      13       3.700000         CONSTANT HEAD       1
      15       1       1      14       3.700000         CONSTANT HEAD       1
      16       1       1      15       3.700000         CONSTANT HEAD       1
      17       1       1      16       3.700000         CONSTANT HEAD       1
      18       1       1      17       3.700000         CONSTANT HEAD       1
      19       1       1      18       3.700000         CONSTANT HEAD       1
      20       1       1      19       3.700000         CONSTANT HEAD       1
      21       1       1      20       3.700000         CONSTANT HEAD       1
      22       1       1      21       3.700000         CONSTANT HEAD       1
      23       1       1      22       3.700000         CONSTANT HEAD       1
      24       1       1      23       3.700000         CONSTANT HEAD       1
      25       1       1      24       3.700000         CONSTANT HEAD       1
      26       1       1      25       3.700000         CONSTANT HEAD       1
      27       1       1      26       3.700000         CONSTANT HEAD       1
      28       1       1      27       3.700000         CONSTANT HEAD       1
      29       1       1      28       3.700000         CONSTANT HEAD       1
      30       1       1      29       3.700000         CONSTANT HEAD       1
      31       1       1      30       3.700000         CONSTANT HEAD       1
      32       1       1      31       3.700000         CONSTANT HEAD       1
      33       1       1      32       3.700000         CONSTANT HEAD       1
      34       1       1      33       3.700000         CONSTANT HEAD       1
      35       1       1      34       3.700000         CONSTANT HEAD       1
      36       1       1      35       3.700000         CONSTANT HEAD       1
      37       1       1      36       3.700000         CONSTANT HEAD       1
      38       1       1      37       3.700000         CONSTANT HEAD       1
      39       1       1      38       3.700000         CONSTANT HEAD       1
      40       1       1      39       3.700000         CONSTANT HEAD       1
      41       1       1      40       3.700000         CONSTANT HEAD       1
      42       1       1      41       3.700000         CONSTANT HEAD       1
      43       1       1      42       3.700000         CONSTANT HEAD       1
      44       1       1      43       3.700000         CONSTANT HEAD       1
      45       1       1      44       3.700000         CONSTANT HEAD       1
      46       1       1      45       3.700000         CONSTANT HEAD       1
      47       1       1      46       3.700000         CONSTANT HEAD       1
      48       1       1      47       3.700000         CONSTANT HEAD       1
      49       1       1      48       3.700000         CONSTANT HEAD       1
      50       1       1      49       3.700000         CONSTANT HEAD       1
      51       1       1      50       3.700000         CONSTANT HEAD       1
      52       1       1      51       3.700000         CONSTANT HEAD       1
      53       1       1      52       3.700000         CONSTANT HEAD       1
      54       1       1      53       3.700000         CONSTANT HEAD       1
      55       1       1      54       3.700000         CONSTANT HEAD       1
      56       1       1      55       3.700000         CONSTANT HEAD       1
      57       1       1      56       3.700000         CONSTANT HEAD       1
      58       1       1      57       3.700000         CONSTANT HEAD       1
      59       1       1      58       3.700000         CONSTANT HEAD       1
      60       1       1      59       3.700000         CONSTANT HEAD       1
      61       1       1      60       3.700000         CONSTANT HEAD       1
      62       1       1      61       3.700000         CONSTANT HEAD       1
      63       1       1      62       3.700000         CONSTANT HEAD       1
      64       1       1      63       3.700000         CONSTANT HEAD       1
      65       1       1      64       3.700000         CONSTANT HEAD       1
      66       1       1      65       3.700000         CONSTANT HEAD       1
      67       1       1      66       3.700000         CONSTANT HEAD       1
      68       1       1      67       3.700000         CONSTANT HEAD       1
      69       1       1      68       3.700000         CONSTANT HEAD       1
      70       1       1      69       3.700000         CONSTANT HEAD       1
      71       1       1      70       3.700000         CONSTANT HEAD       1
      72       1       1      71       3.700000         CONSTANT HEAD       1
      73       1       1      72       3.700000         CONSTANT HEAD       1
      74       1       1      73       3.700000         CONSTANT HEAD       1
      75       1       1      74       3.700000         CONSTANT HEAD       1
      76       1       1      75       3.700000         CONSTANT HEAD       1
      77       1       1      76       3.700000         CONSTANT HEAD       1
      78       1       1      77       3.700000         CONSTANT HEAD       1
      79       1       1      78       3.700000         CONSTANT HEAD       1
      80       1       1      79       3.700000         CONSTANT HEAD       1
      81       1       1      80       3.700000         CONSTANT HEAD       1
      82       1       1      81       3.700000         CONSTANT HEAD       1
      83       1       1      82       3.700000         CONSTANT HEAD       1
      84       1       1      83       3.700000         CONSTANT HEAD       1
      85       1       1      84       3.700000         CONSTANT HEAD       1
      86       1       1      85       3.700000         CONSTANT HEAD       1
      87       1       1      86       3.700000         CONSTANT HEAD       1
      88       1       1      87       3.700000         CONSTANT HEAD       1
      89       1       1      88       3.700000         CONSTANT HEAD       1
      90       1       1      89       3.700000         CONSTANT HEAD       1
      91       1       1      90       3.700000         CONSTANT HEAD       1
      92       1       1      91       3.700000         CONSTANT HEAD       1
      93       1       1      92       3.700000         CONSTANT HEAD       1
      94       1       1      93       3.700000         CONSTANT HEAD       1
      95       1       1      94       3.700000         CONSTANT HEAD       1
      96       1       1      95       3.700000         CONSTANT HEAD       1
      97       1       1      96       3.700000         CONSTANT HEAD       1
      98       1       1      97       3.700000         CONSTANT HEAD       1
      99       1       1      98       3.700000         CONSTANT HEAD       1
     100       1       1      99       3.700000         CONSTANT HEAD       1
     101       1       1     100       3.700000         CONSTANT HEAD       1
     102       1       1     101       3.700000         CONSTANT HEAD       1
     103       1       1     102       3.700000         CONSTANT HEAD       1
     104       1       1     103       3.700000         CONSTANT HEAD       1
     105       1       1     104       3.700000         CONSTANT HEAD       1
     106       1       1     105       3.700000         CONSTANT HEAD       1
     107       1       1     106       3.700000         CONSTANT HEAD       1
     108       1       1     107       3.700000         CONSTANT HEAD       1
     109       1       1     108       3.700000         CONSTANT HEAD       1
     110       1       1     109       3.700000         CONSTANT HEAD       1
     111       1       1     110       3.700000         CONSTANT HEAD       1
     112       1       1     111       3.700000         CONSTANT HEAD       1
     113       1       1     112       3.700000         CONSTANT HEAD       1
     114       1       1     113       3.700000         CONSTANT HEAD       1
     115       1       1     114       3.700000         CONSTANT HEAD       1
     116       1       1     115       3.700000         CONSTANT HEAD       1
     117       1       1     116       3.700000         CONSTANT HEAD       1
     118       1       1     117       3.700000         CONSTANT HEAD       1
     119       1       1     118       3.700000         CONSTANT HEAD       1
     120       1       1     119       3.700000         CONSTANT HEAD       1
     121       1       1     120       3.700000         CONSTANT HEAD       1
     122       1       1     121       3.700000         CONSTANT HEAD       1
     123       1       1     122       3.700000         CONSTANT HEAD       1
     124       1       1     123       3.700000         CONSTANT HEAD       1
     125       1       1     124       3.700000         CONSTANT HEAD       1
     126       1       1     125       3.700000         CONSTANT HEAD       1
     127       1       1     126       3.700000         CONSTANT HEAD       1
     128       1       1     127       3.700000         CONSTANT HEAD       1
     129       1       1     128       3.700000         CONSTANT HEAD       1
     130       1       1     129       3.700000         CONSTANT HEAD       1
     131       1       1     130       3.700000         CONSTANT HEAD       1
     132       1       1     131       3.700000         CONSTANT HEAD       1
     133       1       1     132       3.700000         CONSTANT HEAD       1
     134       1       1     133       3.700000         CONSTANT HEAD       1
     135       1       1     134       3.700000         CONSTANT HEAD       1
     136       1       1     135       3.700000         CONSTANT HEAD       1
     137       1       1     136       3.700000         CONSTANT HEAD       1
     138       1       1     137       3.700000         CONSTANT HEAD       1
     139       1       1     138       3.700000         CONSTANT HEAD       1
     140       1       1     139       3.700000         CONSTANT HEAD       1
     141       1       1     140       3.700000         CONSTANT HEAD       1
     142       1       1     141       3.700000         CONSTANT HEAD       1
     143       1       1     142       3.700000         CONSTANT HEAD       1
     144       1       1     143       3.700000         CONSTANT HEAD       1
     145       1       1     144       3.700000         CONSTANT HEAD       1
     146       1       1     145       3.700000         CONSTANT HEAD       1
     147       1       1     146       3.700000         CONSTANT HEAD       1
     148       1       1     147       3.700000         CONSTANT HEAD       1
     149       1       1     148       3.700000         CONSTANT HEAD       1
     150       1       1     149       3.700000         CONSTANT HEAD       1
     151       1       1     150       3.700000         CONSTANT HEAD       1
     152       1       1     151       3.700000         CONSTANT HEAD       1
     153       1       1     152       3.700000         CONSTANT HEAD       1
     154       1       1     153       3.700000         CONSTANT HEAD       1
     155       1       1     154       3.700000         CONSTANT HEAD       1
     156       1       1     155       3.700000         CONSTANT HEAD       1
     157       1       1     156       3.700000         CONSTANT HEAD       1
     158       1       1     157       3.700000         CONSTANT HEAD       1
     159       1       1     158       3.700000         CONSTANT HEAD       1
     160       1       1     159       3.700000         CONSTANT HEAD       1
     161       1       1     160       3.700000         CONSTANT HEAD       1
     162       1       1     161       3.700000         CONSTANT HEAD       1
     163       1       1     162       3.700000         CONSTANT HEAD       1
     164       1       1     163       3.700000         CONSTANT HEAD       1
     165       1       1     164       3.700000         CONSTANT HEAD       1
     166       1       1     165       3.700000         CONSTANT HEAD       1
     167       1       1     166       3.700000         CONSTANT HEAD       1
     168       1       1     167       3.700000         CONSTANT HEAD       1
     169       1       1     168       3.700000         CONSTANT HEAD       1
     170       1       1     169       3.700000         CONSTANT HEAD       1
     171       1       1     170       3.700000         CONSTANT HEAD       1
     172       1       1     171       3.700000         CONSTANT HEAD       1
     173       1       1     172       3.700000         CONSTANT HEAD       1
     174       1       1     173       3.700000         CONSTANT HEAD       1
     175       1       1     174       3.700000         CONSTANT HEAD       1
     176       1       1     175       3.700000         CONSTANT HEAD       1
     177       1       1     176       3.700000         CONSTANT HEAD       1
     178       1       1     177       3.700000         CONSTANT HEAD       1
     179       1       1     178       3.700000         CONSTANT HEAD       1
     180       1       1     179       3.700000         CONSTANT HEAD       1
     181       1       1     180       3.700000         CONSTANT HEAD       1
     182       1       1     181       3.700000         CONSTANT HEAD       1
     183       1       1     182       3.700000         CONSTANT HEAD       1
     184       1       1     183       3.700000         CONSTANT HEAD       1
     185       1       1     184       3.700000         CONSTANT HEAD       1
     186       1       1     185       3.700000         CONSTANT HEAD       1
     187       1       1     186       3.700000         CONSTANT HEAD       1
     188       1       1     187       3.700000         CONSTANT HEAD       1
     189       1       1     188       3.700000         CONSTANT HEAD       1
     190       1       1     189       3.700000         CONSTANT HEAD       1
     191       1       1     190       3.700000         CONSTANT HEAD       1
     192       1       1     191       3.700000         CONSTANT HEAD       1
     193       1       1     192       3.700000         CONSTANT HEAD       1
     194       1       1     193       3.700000         CONSTANT HEAD       1
     195       1       1     194       3.700000         CONSTANT HEAD       1
     196       1       1     195       3.700000         CONSTANT HEAD       1
     197       1       1     196       3.700000         CONSTANT HEAD       1
     198       1       1     197       3.700000         CONSTANT HEAD       1
     199       1       1     198       3.700000         CONSTANT HEAD       1
     200       1       1     199       3.700000         CONSTANT HEAD       1
     201       1       1     200       3.700000         CONSTANT HEAD       1
     202       1       1     201       3.700000         CONSTANT HEAD       1
     203       1       1     202       3.700000         CONSTANT HEAD       1
     204       1       1     203       3.700000         CONSTANT HEAD       1
     205       1       1     204       3.700000         CONSTANT HEAD       1
     206       1       1     205       3.700000         CONSTANT HEAD       1
     207       1       1     206       3.700000         CONSTANT HEAD       1
     208       1       1     207       3.700000         CONSTANT HEAD       1
     209       1       1     208       3.700000         CONSTANT HEAD       1
     210       1       1     209       3.700000         CONSTANT HEAD       1
     211       1       1     210       3.700000         CONSTANT HEAD       1
     212       1       1     211       3.700000         CONSTANT HEAD       1
     213       1       1     212       3.700000         CONSTANT HEAD       1
     214       1       1     213       3.700000         CONSTANT HEAD       1
     215       1       1     214       3.700000         CONSTANT HEAD       1
     216       1       1     215       3.700000         CONSTANT HEAD       1
     217       1       1     216       3.700000         CONSTANT HEAD       1
     218       1       1     217       3.700000         CONSTANT HEAD       1
     219       1       1     218       3.700000         CONSTANT HEAD       1
     220       1       1     219       3.700000         CONSTANT HEAD       1
     221       1       1     220       3.700000         CONSTANT HEAD       1
     222       1       1     221       3.700000         CONSTANT HEAD       1
     223       1       1     222       3.700000         CONSTANT HEAD       1
     224       1       1     223       3.700000         CONSTANT HEAD       1
     225       1       1     224       3.700000         CONSTANT HEAD       1
     226       1       1     225       3.700000         CONSTANT HEAD       1
     227       1       1     226       3.700000         CONSTANT HEAD       1
     228       1       1     227       3.700000         CONSTANT HEAD       1
     229       1       1     228       3.700000         CONSTANT HEAD       1
     230       1       1     229       3.700000         CONSTANT HEAD       1
     231       1       1     230       3.700000         CONSTANT HEAD       1
     232       1       1     231       3.700000         CONSTANT HEAD       1
     233       1       1     232       3.700000         CONSTANT HEAD       1
     234       1       1     233       3.700000         CONSTANT HEAD       1
     235       1       1     234       3.700000         CONSTANT HEAD       1
     236       1       1     235       3.700000         CONSTANT HEAD       1
     237       1       1     236       3.700000         CONSTANT HEAD       1
     238       1       1     237       3.700000         CONSTANT HEAD       1
     239       1       1     238       3.700000         CONSTANT HEAD       1
     240       1       1     239       3.700000         CONSTANT HEAD       1
     241       1       1     240       3.700000         CONSTANT HEAD       1
     242       1       1     241       3.700000         CONSTANT HEAD       1
     243       1       1     242       3.700000         CONSTANT HEAD       1
     244       1       1     243       3.700000         CONSTANT HEAD       1
     245       1       1     244       3.700000         CONSTANT HEAD       1
     246       1       1     245       3.700000         CONSTANT HEAD       1
     247       1       1     246       3.700000         CONSTANT HEAD       1
     248       1       1     247       3.700000         CONSTANT HEAD       1
     249       1       1     248       3.700000         CONSTANT HEAD       1
     250       1       1     249       3.700000         CONSTANT HEAD       1
     251       1       1     250       3.700000         CONSTANT HEAD       1
     252       1       1     251       3.700000         CONSTANT HEAD       1
     253       1       1     252       3.700000         CONSTANT HEAD       1
     254       1       1     253       3.700000         CONSTANT HEAD       1
     255       1       1     254       3.700000         CONSTANT HEAD       1
     256       1       1     255       3.700000         CONSTANT HEAD       1
     257       1       1     256       3.700000         CONSTANT HEAD       1
     258       1       1     257       3.700000         CONSTANT HEAD       1
     259       1       1     258       3.700000         CONSTANT HEAD       1
     260       1       1     259       3.700000         CONSTANT HEAD       1
     261       1       1     260       3.700000         CONSTANT HEAD       1
     262       1       1     261       3.700000         CONSTANT HEAD       1
     263       1       1     262       3.700000         CONSTANT HEAD       1
     264       1       1     263       3.700000         CONSTANT HEAD       1
     265       1       1     264       3.700000         CONSTANT HEAD       1
     266       1       1     265       3.700000         CONSTANT HEAD       1
     267       1       1     266       3.700000         CONSTANT HEAD       1
     268       1       1     267       3.700000         CONSTANT HEAD       1
     269       1       1     268       3.700000         CONSTANT HEAD       1
     270       1       1     269       3.700000         CONSTANT HEAD       1
     271       1       1     270       3.700000         CONSTANT HEAD       1
     272       1       1     271       3.700000         CONSTANT HEAD       1
     273       1       1     272       3.700000         CONSTANT HEAD       1
     274       1       1     273       3.700000         CONSTANT HEAD       1
     275       1       1     274       3.700000         CONSTANT HEAD       1
     276       1       1     275       3.700000         CONSTANT HEAD       1
     277       1       1     276       3.700000         CONSTANT HEAD       1
     278       1       1     277       3.700000         CONSTANT HEAD       1
     279       1       1     278       3.700000         CONSTANT HEAD       1
     280       1       1     279       3.700000         CONSTANT HEAD       1
     281       1       1     280       3.700000         CONSTANT HEAD       1
     282       1       1     281       3.700000         CONSTANT HEAD       1
     283       1       1     282       3.700000         CONSTANT HEAD       1
     284       1       1     283       3.700000         CONSTANT HEAD       1
     285       1       1     284       3.700000         CONSTANT HEAD       1
     286       1       1     285       3.700000         CONSTANT HEAD       1
     287       1       1     286       3.700000         CONSTANT HEAD       1
     288       1       1     287       3.700000         CONSTANT HEAD       1
     289       1       1     288       3.700000         CONSTANT HEAD       1
     290       1       1     289       3.700000         CONSTANT HEAD       1
     291       1       1     290       3.700000         CONSTANT HEAD       1
     292       1       1     291       3.700000         CONSTANT HEAD       1
     293       1       1     292       3.700000         CONSTANT HEAD       1
     294       1       1     293       3.700000         CONSTANT HEAD       1
     295       1       1     294       3.700000         CONSTANT HEAD       1
     296       1       1     295       3.700000         CONSTANT HEAD       1
     297       1       1     296       3.700000         CONSTANT HEAD       1
     298       1       1     297       3.700000         CONSTANT HEAD       1
     299       1       1     298       3.700000         CONSTANT HEAD       1
     300       1       1     299       3.700000         CONSTANT HEAD       1
     301       1       1     300       3.700000         CONSTANT HEAD       1
     302       1       1     301       3.700000         CONSTANT HEAD       1
     303       1       1     302       3.700000         CONSTANT HEAD       1
     304       1       1     303       3.700000         CONSTANT HEAD       1
     305       1       1     304       3.700000         CONSTANT HEAD       1
     306       1       1     305       3.700000         CONSTANT HEAD       1
     307       1       1     306       3.700000         CONSTANT HEAD       1
     308       1       1     307       3.700000         CONSTANT HEAD       1
     309       1       1     308       3.700000         CONSTANT HEAD       1
     310       1       1     309       3.700000         CONSTANT HEAD       1
     311       1       1     310       3.700000         CONSTANT HEAD       1
     312       1       1     311       3.700000         CONSTANT HEAD       1
     313       1       1     312       3.700000         CONSTANT HEAD       1
     314       1       1     313       3.700000         CONSTANT HEAD       1
     315       1       1     314       3.700000         CONSTANT HEAD       1
     316       1       1     315       3.700000         CONSTANT HEAD       1
     317       1       1     316       3.700000         CONSTANT HEAD       1
     318       1       1     317       3.700000         CONSTANT HEAD       1
     319       1       1     318       3.700000         CONSTANT HEAD       1
     320       1       1     319       3.700000         CONSTANT HEAD       1
     321       1       1     320       3.700000         CONSTANT HEAD       1
     322       1       1     321       3.700000         CONSTANT HEAD       1
     323       1       1     322       3.700000         CONSTANT HEAD       1
     324       1       1     323       3.700000         CONSTANT HEAD       1
     325       1       1     324       3.700000         CONSTANT HEAD       1
     326       1       1     325       3.700000         CONSTANT HEAD       1
     327       1       1     326       3.700000         CONSTANT HEAD       1
     328       1       1     327       3.700000         CONSTANT HEAD       1
     329       1       1     328       3.700000         CONSTANT HEAD       1
     330       1       1     329       3.700000         CONSTANT HEAD       1
     331       1       1     330       3.700000         CONSTANT HEAD       1
     332       1       1     331       3.700000         CONSTANT HEAD       1
     333       1       1     332       3.700000         CONSTANT HEAD       1
     334       1       1     333       3.700000         CONSTANT HEAD       1
     335       1       1     334       3.700000         CONSTANT HEAD       1
     336       1       1     335       3.700000         CONSTANT HEAD       1
     337       1       1     336       3.700000         CONSTANT HEAD       1
     338       1       1     337       3.700000         CONSTANT HEAD       1
     339       1       1     338       3.700000         CONSTANT HEAD       1
     340       1       1     339       3.700000         CONSTANT HEAD       1
     341       1       1     340       3.700000         CONSTANT HEAD       1
     342       1       1     341       3.700000         CONSTANT HEAD       1
     343       1       1     342       3.700000         CONSTANT HEAD       1
     344       1       1     343       3.700000         CONSTANT HEAD       1
     345       1       1     344       3.700000         CONSTANT HEAD       1
     346       1       1     345       3.700000         CONSTANT HEAD       1
     347       1       1     346       3.700000         CONSTANT HEAD       1
     348       1       1     347       3.700000         CONSTANT HEAD       1
     349       1       1     348       3.700000         CONSTANT HEAD       1
     350       1       1     349       3.700000         CONSTANT HEAD       1
     351       1       1     350       3.700000         CONSTANT HEAD       1
     352       1       1     351       3.700000         CONSTANT HEAD       1
     353       1       1     352       3.700000         CONSTANT HEAD       1
     354       1       1     353       3.700000         CONSTANT HEAD       1
     355       1       1     354       3.700000         CONSTANT HEAD       1
     356       1       1     355       3.700000         CONSTANT HEAD       1
     357       1       1     356       3.700000         CONSTANT HEAD       1
     358       1       1     357       3.700000         CONSTANT HEAD       1
     359       1       1     358       3.700000         CONSTANT HEAD       1
     360       1       1     359       3.700000         CONSTANT HEAD       1
     361       1       1     360       3.700000         CONSTANT HEAD       1
     362       1       1     361       3.700000         CONSTANT HEAD       1
     363       1       1     362       3.700000         CONSTANT HEAD       1
     364       1       1     363       3.700000         CONSTANT HEAD       1
     365       1       1     364       3.700000         CONSTANT HEAD       1
     366       1       1     365       3.700000         CONSTANT HEAD       1
     367       1       1     366       3.700000         CONSTANT HEAD       1
     368       1       1     367       3.700000         CONSTANT HEAD       1
     369       1       1     368       3.700000         CONSTANT HEAD       1
     370       1       1     369       3.700000         CONSTANT HEAD       1
     371       1       1     370       3.700000         CONSTANT HEAD       1
     372       1       1     371       3.700000         CONSTANT HEAD       1
     373       1       1     372       3.700000         CONSTANT HEAD       1
     374       1       1     373       3.700000         CONSTANT HEAD       1
     375       1       1     374       3.700000         CONSTANT HEAD       1
     376       1       1     375       3.700000         CONSTANT HEAD       1
     377       1       1     376       3.700000         CONSTANT HEAD       1
     378       1       1     377       3.700000         CONSTANT HEAD       1
     379       1       1     378       3.700000         CONSTANT HEAD       1
     380       1       1     379       3.700000         CONSTANT HEAD       1
     381       1       1     380       3.700000         CONSTANT HEAD       1
     382       1       1     381       3.700000         CONSTANT HEAD       1
     383       1       1     382       3.700000         CONSTANT HEAD       1
     384       1       1     383       3.700000         CONSTANT HEAD       1
     385       1       1     384       3.700000         CONSTANT HEAD       1
     386       1       1     385       3.700000         CONSTANT HEAD       1
     387       1       1     386       3.700000         CONSTANT HEAD       1
     388       1       1     387       3.700000         CONSTANT HEAD       1
     389       1       1     388       3.700000         CONSTANT HEAD       1
     390       1       1     389       3.700000         CONSTANT HEAD       1
     391       1       1     390       3.700000         CONSTANT HEAD       1
     392       1       1     391       3.700000         CONSTANT HEAD       1
     393       1       1     392       3.700000         CONSTANT HEAD       1
     394       1       1     393       3.700000         CONSTANT HEAD       1
     395       1       1     394       3.700000         CONSTANT HEAD       1
     396       1       1     395       3.700000         CONSTANT HEAD       1
     397       1       1     396       3.700000         CONSTANT HEAD       1
     398       1       1     397       3.700000         CONSTANT HEAD       1
     399       1       1     398       3.700000         CONSTANT HEAD       1
     400       1       1     399       3.700000         CONSTANT HEAD       1
     401       1       1     400       3.700000         CONSTANT HEAD       1
     402       1       1     401       3.700000         CONSTANT HEAD       1
     403       1       1     402       3.700000         CONSTANT HEAD       1
     404       1       1     403       3.700000         CONSTANT HEAD       1
     405       1       1     404       3.700000         CONSTANT HEAD       1
     406       1       1     405       3.700000         CONSTANT HEAD       1
     407       1       1     406       3.700000         CONSTANT HEAD       1
     408       1       1     407       3.700000         CONSTANT HEAD       1
     409       1       1     408       3.700000         CONSTANT HEAD       1
     410       1       1     409       3.700000         CONSTANT HEAD       1
     411       1       1     410       3.700000         CONSTANT HEAD       1
     412       1       1     411       3.700000         CONSTANT HEAD       1
     413       1       1     412       3.700000         CONSTANT HEAD       1
     414       1       1     413       3.700000         CONSTANT HEAD       1
     415       1       1     414       3.700000         CONSTANT HEAD       1
     416       1       1     415       3.700000         CONSTANT HEAD       1
     417       1       1     416       3.700000         CONSTANT HEAD       1
     418       1       1     417       3.700000         CONSTANT HEAD       1
     419       1       1     418       3.700000         CONSTANT HEAD       1
     420       1       1     419       3.700000         CONSTANT HEAD       1
     421       1       1     420       3.700000         CONSTANT HEAD       1
     422       1       1     421       3.700000         CONSTANT HEAD       1
     423       1       1     422       3.700000         CONSTANT HEAD       1
     424       1       1     423       3.700000         CONSTANT HEAD       1
     425       1       1     424       3.700000         CONSTANT HEAD       1
     426       1       1     425       3.700000         CONSTANT HEAD       1
     427       1       1     426       3.700000         CONSTANT HEAD       1
     428       1       1     427       3.700000         CONSTANT HEAD       1
     429       1       1     428       3.700000         CONSTANT HEAD       1
     430       1       1     429       3.700000         CONSTANT HEAD       1
     431       1       1     430       3.700000         CONSTANT HEAD       1
     432       1       1     431       3.700000         CONSTANT HEAD       1
     433       1       1     432       3.700000         CONSTANT HEAD       1
     434       1       1     433       3.700000         CONSTANT HEAD       1
     435       1       1     434       3.700000         CONSTANT HEAD       1
     436       1       1     435       3.700000         CONSTANT HEAD       1
     437       1       1     436       3.700000         CONSTANT HEAD       1
     438       1       1     437       3.700000         CONSTANT HEAD       1
     439       1       1     438       3.700000         CONSTANT HEAD       1
     440       1       1     439       3.700000         CONSTANT HEAD       1
     441       1       1     440       3.700000         CONSTANT HEAD       1
     442       1       1     441       3.700000         CONSTANT HEAD       1
     443       1       1     442       3.700000         CONSTANT HEAD       1
     444       1       1     443       3.700000         CONSTANT HEAD       1
     445       1       1     444       3.700000         CONSTANT HEAD       1
     446       1       1     445       3.700000         CONSTANT HEAD       1
     447       1       1     446       3.700000         CONSTANT HEAD       1
     448       1       1     447       3.700000         CONSTANT HEAD       1
     449       1       1     448       3.700000         CONSTANT HEAD       1
     450       1       1     449       3.700000         CONSTANT HEAD       1
     451       1       1     450       3.700000         CONSTANT HEAD       1
     452       1       1     451       3.700000         CONSTANT HEAD       1
     453       1       1     452       3.700000         CONSTANT HEAD       1
     454       1       1     453       3.700000         CONSTANT HEAD       1
     455       1       1     454       3.700000         CONSTANT HEAD       1
     456       1       1     455       3.700000         CONSTANT HEAD       1
     457       1       1     456       3.700000         CONSTANT HEAD       1
     458       1       1     457       3.700000         CONSTANT HEAD       1
     459       1       1     458       3.700000         CONSTANT HEAD       1
     460       1       1     459       3.700000         CONSTANT HEAD       1
     461       1       1     460       3.700000         CONSTANT HEAD       1
     462       1       1     461       3.700000         CONSTANT HEAD       1
     463       1       1     462       3.700000         CONSTANT HEAD       1
     464       1       1     463       3.700000         CONSTANT HEAD       1
     465       1       1     464       3.700000         CONSTANT HEAD       1
     466       1       1     465       3.700000         CONSTANT HEAD       1
     467       1       1     466       3.700000         CONSTANT HEAD       1
     468       1       1     467       3.700000         CONSTANT HEAD       1
     469       1       1     468       3.700000         CONSTANT HEAD       1
     470       1       1     469       3.700000         CONSTANT HEAD       1
     471       1       1     470       3.700000         CONSTANT HEAD       1
     472       1       1     471       3.700000         CONSTANT HEAD       1
     473       1       1     472       3.700000         CONSTANT HEAD       1
     474       1       1     473       3.700000         CONSTANT HEAD       1
     475       1       1     474       3.700000         CONSTANT HEAD       1
     476       1       1     475       3.700000         CONSTANT HEAD       1
     477       1       1     476       3.700000         CONSTANT HEAD       1
     478       1       1     477       3.700000         CONSTANT HEAD       1
     479       1       1     478       3.700000         CONSTANT HEAD       1
     480       1       1     479       3.700000         CONSTANT HEAD       1
     481       1       1     480       3.700000         CONSTANT HEAD       1
     482       1       1     481       3.700000         CONSTANT HEAD       1
     483       1       1     482       3.700000         CONSTANT HEAD       1
     484       1       1     483       3.700000         CONSTANT HEAD       1
     485       1       1     484       3.700000         CONSTANT HEAD       1
     486       1       1     485       3.700000         CONSTANT HEAD       1
     487       1       1     486       3.700000         CONSTANT HEAD       1
     488       1       1     487       3.700000         CONSTANT HEAD       1
     489       1       1     488       3.700000         CONSTANT HEAD       1
     490       1       1     489       3.700000         CONSTANT HEAD       1
     491       1       1     490       3.700000         CONSTANT HEAD       1
     492       1       1     491       3.700000         CONSTANT HEAD       1
     493       1       1     492       3.700000         CONSTANT HEAD       1
     494       1       1     493       3.700000         CONSTANT HEAD       1
     495       1       1     494       3.700000         CONSTANT HEAD       1
     496       1       1     495       3.700000         CONSTANT HEAD       1
     497       1       1     496       3.700000         CONSTANT HEAD       1
     498       1       1     497       3.700000         CONSTANT HEAD       1
     499       1       1     498       3.700000         CONSTANT HEAD       1
     500       1       1     499       3.700000         CONSTANT HEAD       1
     501       1       1     500       3.700000         CONSTANT HEAD       1
     502       1       1     501       3.700000         CONSTANT HEAD       1
     503       1       1     502       3.700000         CONSTANT HEAD       1
     504       1       1     503       3.700000         CONSTANT HEAD       1
     505       1       1     504       3.700000         CONSTANT HEAD       1
     506       1       1     505       3.700000         CONSTANT HEAD       1
     507       1       1     506       3.700000         CONSTANT HEAD       1
     508       1       1     507       3.700000         CONSTANT HEAD       1
     509       1       1     508       3.700000         CONSTANT HEAD       1
     510       1       1     509       3.700000         CONSTANT HEAD       1
     511       1       1     510       3.700000         CONSTANT HEAD       1
     512       1       1     511       3.700000         CONSTANT HEAD       1
     513       1       1     512       3.700000         CONSTANT HEAD       1
     514       1       1     513       3.700000         CONSTANT HEAD       1
     515       1       1     514       3.700000         CONSTANT HEAD       1
     516       1       1     515       3.700000         CONSTANT HEAD       1
     517       1       1     516       3.700000         CONSTANT HEAD       1
     518       1       1     517       3.700000         CONSTANT HEAD       1
     519       1       1     518       3.700000         CONSTANT HEAD       1
     520       1       1     519       3.700000         CONSTANT HEAD       1
     521       1       1     520       3.700000         CONSTANT HEAD       1
     522       1       1     521       3.700000         CONSTANT HEAD       1
     523       1       1     522       3.700000         CONSTANT HEAD       1
     524       1       1     523       3.700000         CONSTANT HEAD       1
     525       1       1     524       3.700000         CONSTANT HEAD       1
     526       1       1     525       3.700000         CONSTANT HEAD       1
     527       1       1     526       3.700000         CONSTANT HEAD       1
     528       1       1     527       3.700000         CONSTANT HEAD       1
     529       1       1     528       3.700000         CONSTANT HEAD       1
     530       1       1     529       3.700000         CONSTANT HEAD       1
     531       1       1     530       3.700000         CONSTANT HEAD       1
     532       1       1     531       3.700000         CONSTANT HEAD       1
     533       1       1     532       3.700000         CONSTANT HEAD       1
     534       1       1     533       3.700000         CONSTANT HEAD       1
     535       1       1     534       3.700000         CONSTANT HEAD       1
     536       1       1     535       3.700000         CONSTANT HEAD       1
     537       1       1     536       3.700000         CONSTANT HEAD       1
     538       1       1     537       3.700000         CONSTANT HEAD       1
     539       1       1     538       3.700000         CONSTANT HEAD       1
     540       1       1     539       3.700000         CONSTANT HEAD       1
     541       1       1     540       3.700000         CONSTANT HEAD       1
     542       1       1     541       3.700000         CONSTANT HEAD       1
     543       1       1     542       3.700000         CONSTANT HEAD       1
     544       1       1     543       3.700000         CONSTANT HEAD       1
     545       1       1     544       3.700000         CONSTANT HEAD       1
     546       1       1     545       3.700000         CONSTANT HEAD       1
     547       1       1     546       3.700000         CONSTANT HEAD       1
     548       1       1     547       3.700000         CONSTANT HEAD       1
     549       1       1     548       3.700000         CONSTANT HEAD       1
     550       1       1     549       3.700000         CONSTANT HEAD       1
     551       1       1     550       3.700000         CONSTANT HEAD       1
     552       1       1     551       3.700000         CONSTANT HEAD       1
     553       1       1     552       3.700000         CONSTANT HEAD       1
     554       1       1     553       3.700000         CONSTANT HEAD       1
     555       1       1     554       3.700000         CONSTANT HEAD       1
     556       1       1     555       3.700000         CONSTANT HEAD       1
     557       1       1     556       3.700000         CONSTANT HEAD       1
     558       1       1     557       3.700000         CONSTANT HEAD       1
     559       1       1     558       3.700000         CONSTANT HEAD       1
     560       1       1     559       3.700000         CONSTANT HEAD       1
     561       1       1     560       3.700000         CONSTANT HEAD       1
     562       1       1     561       3.700000         CONSTANT HEAD       1
     563       1       1     562       3.700000         CONSTANT HEAD       1
     564       1       1     563       3.700000         CONSTANT HEAD       1
     565       1       1     564       3.700000         CONSTANT HEAD       1
     566       1       1     565       3.700000         CONSTANT HEAD       1
     567       1       1     566       3.700000         CONSTANT HEAD       1
     568       1       1     567       3.700000         CONSTANT HEAD       1
     569       1       1     568       3.700000         CONSTANT HEAD       1
     570       1       1     569       3.700000         CONSTANT HEAD       1
     571       1       1     570       3.700000         CONSTANT HEAD       1
     572       1       1     571       3.700000         CONSTANT HEAD       1
     573       1       1     572       3.700000         CONSTANT HEAD       1
     574       1       1     573       3.700000         CONSTANT HEAD       1
     575       1       1     574       3.700000         CONSTANT HEAD       1
     576       1       1     575       3.700000         CONSTANT HEAD       1
     577       1       1     576       3.700000         CONSTANT HEAD       1
     578       1       1     577       3.700000         CONSTANT HEAD       1
     579       1       1     578       3.700000         CONSTANT HEAD       1
     580       1       1     579       3.700000         CONSTANT HEAD       1
     581       1       1     580       3.700000         CONSTANT HEAD       1
     582       1       1     581       3.700000         CONSTANT HEAD       1
     583       1       1     582       3.700000         CONSTANT HEAD       1
     584       1       1     583       3.700000         CONSTANT HEAD       1
     585       1       1     584       3.700000         CONSTANT HEAD       1
     586       1       1     585       3.700000         CONSTANT HEAD       1
     587       1       1     586       3.700000         CONSTANT HEAD       1
     588       1       1     587       3.700000         CONSTANT HEAD       1
     589       1       1     588       3.700000         CONSTANT HEAD       1
     590       1       1     589       3.700000         CONSTANT HEAD       1
     591       1       1     590       3.700000         CONSTANT HEAD       1
     592       1       1     591       3.700000         CONSTANT HEAD       1
     593       1       1     592       3.700000         CONSTANT HEAD       1
     594       1       1     593       3.700000         CONSTANT HEAD       1
     595       1       1     594       3.700000         CONSTANT HEAD       1
     596       1       1     595       3.700000         CONSTANT HEAD       1
     597       1       1     596       3.700000         CONSTANT HEAD       1
     598       1       1     597       3.700000         CONSTANT HEAD       1
     599       1       1     598       3.700000         CONSTANT HEAD       1
     600       1       1     599       3.700000         CONSTANT HEAD       1
     601       1       1     600       3.700000         CONSTANT HEAD       1
     602       1       1     601       3.700000         CONSTANT HEAD       1
     603       1       1     602       3.700000         CONSTANT HEAD       1
     604       1       1     603       3.700000         CONSTANT HEAD       1
     605       1       1     604       3.700000         CONSTANT HEAD       1
     606       1       1     605       3.700000         CONSTANT HEAD       1
     607       1       1     606       3.700000         CONSTANT HEAD       1
     608       1       1     607       3.700000         CONSTANT HEAD       1
     609       1       1     608       3.700000         CONSTANT HEAD       1
     610       1       1     609       3.700000         CONSTANT HEAD       1
     611       1       1     610       3.700000         CONSTANT HEAD       1
     612       1       1     611       3.700000         CONSTANT HEAD       1
     613       1       1     612       3.700000         CONSTANT HEAD       1
     614       1       1     613       3.700000         CONSTANT HEAD       1
     615       1       1     614       3.700000         CONSTANT HEAD       1
     616       1       1     615       3.700000         CONSTANT HEAD       1
     617       1       1     616       3.700000         CONSTANT HEAD       1
     618       1       1     617       3.700000         CONSTANT HEAD       1
     619       1       1     618       3.700000         CONSTANT HEAD       1
     620       1       1     619       3.700000         CONSTANT HEAD       1
     621       1       1     620       3.700000         CONSTANT HEAD       1
     622       1       1     621       3.700000         CONSTANT HEAD       1
     623       1       1     622       3.700000         CONSTANT HEAD       1
     624       1       1     623       3.700000         CONSTANT HEAD       1
     625       1       1     624       3.700000         CONSTANT HEAD       1
     626       1       1     625       3.700000         CONSTANT HEAD       1
     627       1       1     626       3.700000         CONSTANT HEAD       1
     628       1       1     627       3.700000         CONSTANT HEAD       1
     629       1       1     628       3.700000         CONSTANT HEAD       1
     630       1       1     629       3.700000         CONSTANT HEAD       1
     631       1       1     630       3.700000         CONSTANT HEAD       1
     632       1       1     631       3.700000         CONSTANT HEAD       1
     633       1       1     632       3.700000         CONSTANT HEAD       1
     634       1       1     633       3.700000         CONSTANT HEAD       1
     635       1       1     634       3.700000         CONSTANT HEAD       1
     636       1       1     635       3.700000         CONSTANT HEAD       1
     637       1       1     636       3.700000         CONSTANT HEAD       1
     638       1       1     637       3.700000         CONSTANT HEAD       1
     639       1       1     638       3.700000         CONSTANT HEAD       1
     640       1       1     639       3.700000         CONSTANT HEAD       1
     641       1       1     640       3.700000         CONSTANT HEAD       1
     642       1       1     641       3.700000         CONSTANT HEAD       1
     643       1       1     642       3.700000         CONSTANT HEAD       1
     644       1       1     643       3.700000         CONSTANT HEAD       1
     645       1       1     644       3.700000         CONSTANT HEAD       1
     646       1       1     645       3.700000         CONSTANT HEAD       1
     647       1       1     646       3.700000         CONSTANT HEAD       1
     648       1       1     647       3.700000         CONSTANT HEAD       1
     649       1       1     648       3.700000         CONSTANT HEAD       1
     650       1       1     649       3.700000         CONSTANT HEAD       1
     651       1       1     650       3.700000         CONSTANT HEAD       1
     652       1       3       2       3.700000         CONSTANT HEAD       1
     653       1       3       3       3.700000         CONSTANT HEAD       1
     654       1       3       4       3.700000         CONSTANT HEAD       1
     655       1       3       5       3.700000         CONSTANT HEAD       1
     656       1       3       6       3.700000         CONSTANT HEAD       1
     657       1       3       7       3.700000         CONSTANT HEAD       1
     658       1       3       8       3.700000         CONSTANT HEAD       1
     659       1       3       9       3.700000         CONSTANT HEAD       1
     660       1       3      10       3.700000         CONSTANT HEAD       1
     661       1       3      11       3.700000         CONSTANT HEAD       1
     662       1       3      12       3.700000         CONSTANT HEAD       1
     663       1       3      13       3.700000         CONSTANT HEAD       1
     664       1       3      14       3.700000         CONSTANT HEAD       1
     665       1       3      15       3.700000         CONSTANT HEAD       1
     666       1       3      16       3.700000         CONSTANT HEAD       1
     667       1       3      17       3.700000         CONSTANT HEAD       1
     668       1       3      18       3.700000         CONSTANT HEAD       1
     669       1       3      19       3.700000         CONSTANT HEAD       1
     670       1       3      20       3.700000         CONSTANT HEAD       1
     671       1       3      21       3.700000         CONSTANT HEAD       1
     672       1       3      22       3.700000         CONSTANT HEAD       1
     673       1       3      23       3.700000         CONSTANT HEAD       1
     674       1       3      24       3.700000         CONSTANT HEAD       1
     675       1       3      25       3.700000         CONSTANT HEAD       1
     676       1       3      26       3.700000         CONSTANT HEAD       1
     677       1       3      27       3.700000         CONSTANT HEAD       1
     678       1       3      28       3.700000         CONSTANT HEAD       1
     679       1       3      29       3.700000         CONSTANT HEAD       1
     680       1       3      30       3.700000         CONSTANT HEAD       1
     681       1       3      31       3.700000         CONSTANT HEAD       1
     682       1       3      32       3.700000         CONSTANT HEAD       1
     683       1       3      33       3.700000         CONSTANT HEAD       1
     684       1       3      34       3.700000         CONSTANT HEAD       1
     685       1       3      35       3.700000         CONSTANT HEAD       1
     686       1       3      36       3.700000         CONSTANT HEAD       1
     687       1       3      37       3.700000         CONSTANT HEAD       1
     688       1       3      38       3.700000         CONSTANT HEAD       1
     689       1       3      39       3.700000         CONSTANT HEAD       1
     690       1       3      40       3.700000         CONSTANT HEAD       1
     691       1       3      41       3.700000         CONSTANT HEAD       1
     692       1       3      42       3.700000         CONSTANT HEAD       1
     693       1       3      43       3.700000         CONSTANT HEAD       1
     694       1       3      44       3.700000         CONSTANT HEAD       1
     695       1       3      45       3.700000         CONSTANT HEAD       1
     696       1       3      46       3.700000         CONSTANT HEAD       1
     697       1       3      47       3.700000         CONSTANT HEAD       1
     698       1       3      48       3.700000         CONSTANT HEAD       1
     699       1       3      49       3.700000         CONSTANT HEAD       1
     700       1       3      50       3.700000         CONSTANT HEAD       1
     701       1       3      51       3.700000         CONSTANT HEAD       1
     702       1       3      52       3.700000         CONSTANT HEAD       1
     703       1       3      53       3.700000         CONSTANT HEAD       1
     704       1       3      54       3.700000         CONSTANT HEAD       1
     705       1       3      55       3.700000         CONSTANT HEAD       1
     706       1       3      56       3.700000         CONSTANT HEAD       1
     707       1       3      57       3.700000         CONSTANT HEAD       1
     708       1       3      58       3.700000         CONSTANT HEAD       1
     709       1       3      59       3.700000         CONSTANT HEAD       1
     710       1       3      60       3.700000         CONSTANT HEAD       1
     711       1       3      61       3.700000         CONSTANT HEAD       1
     712       1       3      62       3.700000         CONSTANT HEAD       1
     713       1       3      63       3.700000         CONSTANT HEAD       1
     714       1       3      64       3.700000         CONSTANT HEAD       1
     715       1       3      65       3.700000         CONSTANT HEAD       1
     716       1       3      66       3.700000         CONSTANT HEAD       1
     717       1       3      67       3.700000         CONSTANT HEAD       1
     718       1       3      68       3.700000         CONSTANT HEAD       1
     719       1       3      69       3.700000         CONSTANT HEAD       1
     720       1       3      70       3.700000         CONSTANT HEAD       1
     721       1       3      71       3.700000         CONSTANT HEAD       1
     722       1       3      72       3.700000         CONSTANT HEAD       1
     723       1       3      73       3.700000         CONSTANT HEAD       1
     724       1       3      74       3.700000         CONSTANT HEAD       1
     725       1       3      75       3.700000         CONSTANT HEAD       1
     726       1       3      76       3.700000         CONSTANT HEAD       1
     727       1       3      77       3.700000         CONSTANT HEAD       1
     728       1       3      78       3.700000         CONSTANT HEAD       1
     729       1       3      79       3.700000         CONSTANT HEAD       1
     730       1       3      80       3.700000         CONSTANT HEAD       1
     731       1       3      81       3.700000         CONSTANT HEAD       1
     732       1       3      82       3.700000         CONSTANT HEAD       1
     733       1       3      83       3.700000         CONSTANT HEAD       1
     734       1       3      84       3.700000         CONSTANT HEAD       1
     735       1       3      85       3.700000         CONSTANT HEAD       1
     736       1       3      86       3.700000         CONSTANT HEAD       1
     737       1       3      87       3.700000         CONSTANT HEAD       1
     738       1       3      88       3.700000         CONSTANT HEAD       1
     739       1       3      89       3.700000         CONSTANT HEAD       1
     740       1       3      90       3.700000         CONSTANT HEAD       1
     741       1       3      91       3.700000         CONSTANT HEAD       1
     742       1       3      92       3.700000         CONSTANT HEAD       1
     743       1       3      93       3.700000         CONSTANT HEAD       1
     744       1       3      94       3.700000         CONSTANT HEAD       1
     745       1       3      95       3.700000         CONSTANT HEAD       1
     746       1       3      96       3.700000         CONSTANT HEAD       1
     747       1       3      97       3.700000         CONSTANT HEAD       1
     748       1       3      98       3.700000         CONSTANT HEAD       1
     749       1       3      99       3.700000         CONSTANT HEAD       1
     750       1       3     100       3.700000         CONSTANT HEAD       1
     751       1       3     101       3.700000         CONSTANT HEAD       1
     752       1       3     102       3.700000         CONSTANT HEAD       1
     753       1       3     103       3.700000         CONSTANT HEAD       1
     754       1       3     104       3.700000         CONSTANT HEAD       1
     755       1       3     105       3.700000         CONSTANT HEAD       1
     756       1       3     106       3.700000         CONSTANT HEAD       1
     757       1       3     107       3.700000         CONSTANT HEAD       1
     758       1       3     108       3.700000         CONSTANT HEAD       1
     759       1       3     109       3.700000         CONSTANT HEAD       1
     760       1       3     110       3.700000         CONSTANT HEAD       1
     761       1       3     111       3.700000         CONSTANT HEAD       1
     762       1       3     112       3.700000         CONSTANT HEAD       1
     763       1       3     113       3.700000         CONSTANT HEAD       1
     764       1       3     114       3.700000         CONSTANT HEAD       1
     765       1       3     115       3.700000         CONSTANT HEAD       1
     766       1       3     116       3.700000         CONSTANT HEAD       1
     767       1       3     117       3.700000         CONSTANT HEAD       1
     768       1       3     118       3.700000         CONSTANT HEAD       1
     769       1       3     119       3.700000         CONSTANT HEAD       1
     770       1       3     120       3.700000         CONSTANT HEAD       1
     771       1       3     121       3.700000         CONSTANT HEAD       1
     772       1       3     122       3.700000         CONSTANT HEAD       1
     773       1       3     123       3.700000         CONSTANT HEAD       1
     774       1       3     124       3.700000         CONSTANT HEAD       1
     775       1       3     125       3.700000         CONSTANT HEAD       1
     776       1       3     126       3.700000         CONSTANT HEAD       1
     777       1       3     127       3.700000         CONSTANT HEAD       1
     778       1       3     128       3.700000         CONSTANT HEAD       1
     779       1       3     129       3.700000         CONSTANT HEAD       1
     780       1       3     130       3.700000         CONSTANT HEAD       1
     781       1       3     131       3.700000         CONSTANT HEAD       1
     782       1       3     132       3.700000         CONSTANT HEAD       1
     783       1       3     133       3.700000         CONSTANT HEAD       1
     784       1       3     134       3.700000         CONSTANT HEAD       1
     785       1       3     135       3.700000         CONSTANT HEAD       1
     786       1       3     136       3.700000         CONSTANT HEAD       1
     787       1       3     137       3.700000         CONSTANT HEAD       1
     788       1       3     138       3.700000         CONSTANT HEAD       1
     789       1       3     139       3.700000         CONSTANT HEAD       1
     790       1       3     140       3.700000         CONSTANT HEAD       1
     791       1       3     141       3.700000         CONSTANT HEAD       1
     792       1       3     142       3.700000         CONSTANT HEAD       1
     793       1       3     143       3.700000         CONSTANT HEAD       1
     794       1       3     144       3.700000         CONSTANT HEAD       1
     795       1       3     145       3.700000         CONSTANT HEAD       1
     796       1       3     146       3.700000         CONSTANT HEAD       1
     797       1       3     147       3.700000         CONSTANT HEAD       1
     798       1       3     148       3.700000         CONSTANT HEAD       1
     799       1       3     149       3.700000         CONSTANT HEAD       1
     800       1       3     150       3.700000         CONSTANT HEAD       1
     801       1       3     151       3.700000         CONSTANT HEAD       1
     802       1       3     152       3.700000         CONSTANT HEAD       1
     803       1       3     153       3.700000         CONSTANT HEAD       1
     804       1       3     154       3.700000         CONSTANT HEAD       1
     805       1       3     155       3.700000         CONSTANT HEAD       1
     806       1       3     156       3.700000         CONSTANT HEAD       1
     807       1       3     157       3.700000         CONSTANT HEAD       1
     808       1       3     158       3.700000         CONSTANT HEAD       1
     809       1       3     159       3.700000         CONSTANT HEAD       1
     810       1       3     160       3.700000         CONSTANT HEAD       1
     811       1       3     161       3.700000         CONSTANT HEAD       1
     812       1       3     162       3.700000         CONSTANT HEAD       1
     813       1       3     163       3.700000         CONSTANT HEAD       1
     814       1       3     164       3.700000         CONSTANT HEAD       1
     815       1       3     165       3.700000         CONSTANT HEAD       1
     816       1       3     166       3.700000         CONSTANT HEAD       1
     817       1       3     167       3.700000         CONSTANT HEAD       1
     818       1       3     168       3.700000         CONSTANT HEAD       1
     819       1       3     169       3.700000         CONSTANT HEAD       1
     820       1       3     170       3.700000         CONSTANT HEAD       1
     821       1       3     171       3.700000         CONSTANT HEAD       1
     822       1       3     172       3.700000         CONSTANT HEAD       1
     823       1       3     173       3.700000         CONSTANT HEAD       1
     824       1       3     174       3.700000         CONSTANT HEAD       1
     825       1       3     175       3.700000         CONSTANT HEAD       1
     826       1       3     176       3.700000         CONSTANT HEAD       1
     827       1       3     177       3.700000         CONSTANT HEAD       1
     828       1       3     178       3.700000         CONSTANT HEAD       1
     829       1       3     179       3.700000         CONSTANT HEAD       1
     830       1       3     180       3.700000         CONSTANT HEAD       1
     831       1       3     181       3.700000         CONSTANT HEAD       1
     832       1       3     182       3.700000         CONSTANT HEAD       1
     833       1       3     183       3.700000         CONSTANT HEAD       1
     834       1       3     184       3.700000         CONSTANT HEAD       1
     835       1       3     185       3.700000         CONSTANT HEAD       1
     836       1       3     186       3.700000         CONSTANT HEAD       1
     837       1       3     187       3.700000         CONSTANT HEAD       1
     838       1       3     188       3.700000         CONSTANT HEAD       1
     839       1       3     189       3.700000         CONSTANT HEAD       1
     840       1       3     190       3.700000         CONSTANT HEAD       1
     841       1       3     191       3.700000         CONSTANT HEAD       1
     842       1       3     192       3.700000         CONSTANT HEAD       1
     843       1       3     193       3.700000         CONSTANT HEAD       1
     844       1       3     194       3.700000         CONSTANT HEAD       1
     845       1       3     195       3.700000         CONSTANT HEAD       1
     846       1       3     196       3.700000         CONSTANT HEAD       1
     847       1       3     197       3.700000         CONSTANT HEAD       1
     848       1       3     198       3.700000         CONSTANT HEAD       1
     849       1       3     199       3.700000         CONSTANT HEAD       1
     850       1       3     200       3.700000         CONSTANT HEAD       1
     851       1       3     201       3.700000         CONSTANT HEAD       1
     852       1       3     202       3.700000         CONSTANT HEAD       1
     853       1       3     203       3.700000         CONSTANT HEAD       1
     854       1       3     204       3.700000         CONSTANT HEAD       1
     855       1       3     205       3.700000         CONSTANT HEAD       1
     856       1       3     206       3.700000         CONSTANT HEAD       1
     857       1       3     207       3.700000         CONSTANT HEAD       1
     858       1       3     208       3.700000         CONSTANT HEAD       1
     859       1       3     209       3.700000         CONSTANT HEAD       1
     860       1       3     210       3.700000         CONSTANT HEAD       1
     861       1       3     211       3.700000         CONSTANT HEAD       1
     862       1       3     212       3.700000         CONSTANT HEAD       1
     863       1       3     213       3.700000         CONSTANT HEAD       1
     864       1       3     214       3.700000         CONSTANT HEAD       1
     865       1       3     215       3.700000         CONSTANT HEAD       1
     866       1       3     216       3.700000         CONSTANT HEAD       1
     867       1       3     217       3.700000         CONSTANT HEAD       1
     868       1       3     218       3.700000         CONSTANT HEAD       1
     869       1       3     219       3.700000         CONSTANT HEAD       1
     870       1       3     220       3.700000         CONSTANT HEAD       1
     871       1       3     221       3.700000         CONSTANT HEAD       1
     872       1       3     222       3.700000         CONSTANT HEAD       1
     873       1       3     223       3.700000         CONSTANT HEAD       1
     874       1       3     224       3.700000         CONSTANT HEAD       1
     875       1       3     225       3.700000         CONSTANT HEAD       1
     876       1       3     226       3.700000         CONSTANT HEAD       1
     877       1       3     227       3.700000         CONSTANT HEAD       1
     878       1       3     228       3.700000         CONSTANT HEAD       1
     879       1       3     229       3.700000         CONSTANT HEAD       1
     880       1       3     230       3.700000         CONSTANT HEAD       1
     881       1       3     231       3.700000         CONSTANT HEAD       1
     882       1       3     232       3.700000         CONSTANT HEAD       1
     883       1       3     233       3.700000         CONSTANT HEAD       1
     884       1       3     234       3.700000         CONSTANT HEAD       1
     885       1       3     235       3.700000         CONSTANT HEAD       1
     886       1       3     236       3.700000         CONSTANT HEAD       1
     887       1       3     237       3.700000         CONSTANT HEAD       1
     888       1       3     238       3.700000         CONSTANT HEAD       1
     889       1       3     239       3.700000         CONSTANT HEAD       1
     890       1       3     240       3.700000         CONSTANT HEAD       1
     891       1       3     241       3.700000         CONSTANT HEAD       1
     892       1       3     242       3.700000         CONSTANT HEAD       1
     893       1       3     243       3.700000         CONSTANT HEAD       1
     894       1       3     244       3.700000         CONSTANT HEAD       1
     895       1       3     245       3.700000         CONSTANT HEAD       1
     896       1       3     246       3.700000         CONSTANT HEAD       1
     897       1       3     247       3.700000         CONSTANT HEAD       1
     898       1       3     248       3.700000         CONSTANT HEAD       1
     899       1       3     249       3.700000         CONSTANT HEAD       1
     900       1       3     250       3.700000         CONSTANT HEAD       1
     901       1       3     251       3.700000         CONSTANT HEAD       1
     902       1       3     252       3.700000         CONSTANT HEAD       1
     903       1       3     253       3.700000         CONSTANT HEAD       1
     904       1       3     254       3.700000         CONSTANT HEAD       1
     905       1       3     255       3.700000         CONSTANT HEAD       1
     906       1       3     256       3.700000         CONSTANT HEAD       1
     907       1       3     257       3.700000         CONSTANT HEAD       1
     908       1       3     258       3.700000         CONSTANT HEAD       1
     909       1       3     259       3.700000         CONSTANT HEAD       1
     910       1       3     260       3.700000         CONSTANT HEAD       1
     911       1       3     261       3.700000         CONSTANT HEAD       1
     912       1       3     262       3.700000         CONSTANT HEAD       1
     913       1       3     263       3.700000         CONSTANT HEAD       1
     914       1       3     264       3.700000         CONSTANT HEAD       1
     915       1       3     265       3.700000         CONSTANT HEAD       1
     916       1       3     266       3.700000         CONSTANT HEAD       1
     917       1       3     267       3.700000         CONSTANT HEAD       1
     918       1       3     268       3.700000         CONSTANT HEAD       1
     919       1       3     269       3.700000         CONSTANT HEAD       1
     920       1       3     270       3.700000         CONSTANT HEAD       1
     921       1       3     271       3.700000         CONSTANT HEAD       1
     922       1       3     272       3.700000         CONSTANT HEAD       1
     923       1       3     273       3.700000         CONSTANT HEAD       1
     924       1       3     274       3.700000         CONSTANT HEAD       1
     925       1       3     275       3.700000         CONSTANT HEAD       1
     926       1       3     276       3.700000         CONSTANT HEAD       1
     927       1       3     277       3.700000         CONSTANT HEAD       1
     928       1       3     278       3.700000         CONSTANT HEAD       1
     929       1       3     279       3.700000         CONSTANT HEAD       1
     930       1       3     280       3.700000         CONSTANT HEAD       1
     931       1       3     281       3.700000         CONSTANT HEAD       1
     932       1       3     282       3.700000         CONSTANT HEAD       1
     933       1       3     283       3.700000         CONSTANT HEAD       1
     934       1       3     284       3.700000         CONSTANT HEAD       1
     935       1       3     285       3.700000         CONSTANT HEAD       1
     936       1       3     286       3.700000         CONSTANT HEAD       1
     937       1       3     287       3.700000         CONSTANT HEAD       1
     938       1       3     288       3.700000         CONSTANT HEAD       1
     939       1       3     289       3.700000         CONSTANT HEAD       1
     940       1       3     290       3.700000         CONSTANT HEAD       1
     941       1       3     291       3.700000         CONSTANT HEAD       1
     942       1       3     292       3.700000         CONSTANT HEAD       1
     943       1       3     293       3.700000         CONSTANT HEAD       1
     944       1       3     294       3.700000         CONSTANT HEAD       1
     945       1       3     295       3.700000         CONSTANT HEAD       1
     946       1       3     296       3.700000         CONSTANT HEAD       1
     947       1       3     297       3.700000         CONSTANT HEAD       1
     948       1       3     298       3.700000         CONSTANT HEAD       1
     949       1       3     299       3.700000         CONSTANT HEAD       1
     950       1       3     300       3.700000         CONSTANT HEAD       1
     951       1       3     301       3.700000         CONSTANT HEAD       1
     952       1       3     302       3.700000         CONSTANT HEAD       1
     953       1       3     303       3.700000         CONSTANT HEAD       1
     954       1       3     304       3.700000         CONSTANT HEAD       1
     955       1       3     305       3.700000         CONSTANT HEAD       1
     956       1       3     306       3.700000         CONSTANT HEAD       1
     957       1       3     307       3.700000         CONSTANT HEAD       1
     958       1       3     308       3.700000         CONSTANT HEAD       1
     959       1       3     309       3.700000         CONSTANT HEAD       1
     960       1       3     310       3.700000         CONSTANT HEAD       1
     961       1       3     311       3.700000         CONSTANT HEAD       1
     962       1       3     312       3.700000         CONSTANT HEAD       1
     963       1       3     313       3.700000         CONSTANT HEAD       1
     964       1       3     314       3.700000         CONSTANT HEAD       1
     965       1       3     315       3.700000         CONSTANT HEAD       1
     966       1       3     316       3.700000         CONSTANT HEAD       1
     967       1       3     317       3.700000         CONSTANT HEAD       1
     968       1       3     318       3.700000         CONSTANT HEAD       1
     969       1       3     319       3.700000         CONSTANT HEAD       1
     970       1       3     320       3.700000         CONSTANT HEAD       1
     971       1       3     321       3.700000         CONSTANT HEAD       1
     972       1       3     322       3.700000         CONSTANT HEAD       1
     973       1       3     323       3.700000         CONSTANT HEAD       1
     974       1       3     324       3.700000         CONSTANT HEAD       1
     975       1       3     325       3.700000         CONSTANT HEAD       1
     976       1       3     326       3.700000         CONSTANT HEAD       1
     977       1       3     327       3.700000         CONSTANT HEAD       1
     978       1       3     328       3.700000         CONSTANT HEAD       1
     979       1       3     329       3.700000         CONSTANT HEAD       1
     980       1       3     330       3.700000         CONSTANT HEAD       1
     981       1       3     331       3.700000         CONSTANT HEAD       1
     982       1       3     332       3.700000         CONSTANT HEAD       1
     983       1       3     333       3.700000         CONSTANT HEAD       1
     984       1       3     334       3.700000         CONSTANT HEAD       1
     985       1       3     335       3.700000         CONSTANT HEAD       1
     986       1       3     336       3.700000         CONSTANT HEAD       1
     987       1       3     337       3.700000         CONSTANT HEAD       1
     988       1       3     338       3.700000         CONSTANT HEAD       1
     989       1       3     339       3.700000         CONSTANT HEAD       1
     990       1       3     340       3.700000         CONSTANT HEAD       1
     991       1       3     341       3.700000         CONSTANT HEAD       1
     992       1       3     342       3.700000         CONSTANT HEAD       1
     993       1       3     343       3.700000         CONSTANT HEAD       1
     994       1       3     344       3.700000         CONSTANT HEAD       1
     995       1       3     345       3.700000         CONSTANT HEAD       1
     996       1       3     346       3.700000         CONSTANT HEAD       1
     997       1       3     347       3.700000         CONSTANT HEAD       1
     998       1       3     348       3.700000         CONSTANT HEAD       1
     999       1       3     349       3.700000         CONSTANT HEAD       1
    1000       1       3     350       3.700000         CONSTANT HEAD       1
    1001       1       3     351       3.700000         CONSTANT HEAD       1
    1002       1       3     352       3.700000         CONSTANT HEAD       1
    1003       1       3     353       3.700000         CONSTANT HEAD       1
    1004       1       3     354       3.700000         CONSTANT HEAD       1
    1005       1       3     355       3.700000         CONSTANT HEAD       1
    1006       1       3     356       3.700000         CONSTANT HEAD       1
    1007       1       3     357       3.700000         CONSTANT HEAD       1
    1008       1       3     358       3.700000         CONSTANT HEAD       1
    1009       1       3     359       3.700000         CONSTANT HEAD       1
    1010       1       3     360       3.700000         CONSTANT HEAD       1
    1011       1       3     361       3.700000         CONSTANT HEAD       1
    1012       1       3     362       3.700000         CONSTANT HEAD       1
    1013       1       3     363       3.700000         CONSTANT HEAD       1
    1014       1       3     364       3.700000         CONSTANT HEAD       1
    1015       1       3     365       3.700000         CONSTANT HEAD       1
    1016       1       3     366       3.700000         CONSTANT HEAD       1
    1017       1       3     367       3.700000         CONSTANT HEAD       1
    1018       1       3     368       3.700000         CONSTANT HEAD       1
    1019       1       3     369       3.700000         CONSTANT HEAD       1
    1020       1       3     370       3.700000         CONSTANT HEAD       1
    1021       1       3     371       3.700000         CONSTANT HEAD       1
    1022       1       3     372       3.700000         CONSTANT HEAD       1
    1023       1       3     373       3.700000         CONSTANT HEAD       1
    1024       1       3     374       3.700000         CONSTANT HEAD       1
    1025       1       3     375       3.700000         CONSTANT HEAD       1
    1026       1       3     376       3.700000         CONSTANT HEAD       1
    1027       1       3     377       3.700000         CONSTANT HEAD       1
    1028       1       3     378       3.700000         CONSTANT HEAD       1
    1029       1       3     379       3.700000         CONSTANT HEAD       1
    1030       1       3     380       3.700000         CONSTANT HEAD       1
    1031       1       3     381       3.700000         CONSTANT HEAD       1
    1032       1       3     382       3.700000         CONSTANT HEAD       1
    1033       1       3     383       3.700000         CONSTANT HEAD       1
    1034       1       3     384       3.700000         CONSTANT HEAD       1
    1035       1       3     385       3.700000         CONSTANT HEAD       1
    1036       1       3     386       3.700000         CONSTANT HEAD       1
    1037       1       3     387       3.700000         CONSTANT HEAD       1
    1038       1       3     388       3.700000         CONSTANT HEAD       1
    1039       1       3     389       3.700000         CONSTANT HEAD       1
    1040       1       3     390       3.700000         CONSTANT HEAD       1
    1041       1       3     391       3.700000         CONSTANT HEAD       1
    1042       1       3     392       3.700000         CONSTANT HEAD       1
    1043       1       3     393       3.700000         CONSTANT HEAD       1
    1044       1       3     394       3.700000         CONSTANT HEAD       1
    1045       1       3     395       3.700000         CONSTANT HEAD       1
    1046       1       3     396       3.700000         CONSTANT HEAD       1
    1047       1       3     397       3.700000         CONSTANT HEAD       1
    1048       1       3     398       3.700000         CONSTANT HEAD       1
    1049       1       3     399       3.700000         CONSTANT HEAD       1
    1050       1       3     400       3.700000         CONSTANT HEAD       1
    1051       1       3     401       3.700000         CONSTANT HEAD       1
    1052       1       3     402       3.700000         CONSTANT HEAD       1
    1053       1       3     403       3.700000         CONSTANT HEAD       1
    1054       1       3     404       3.700000         CONSTANT HEAD       1
    1055       1       3     405       3.700000         CONSTANT HEAD       1
    1056       1       3     406       3.700000         CONSTANT HEAD       1
    1057       1       3     407       3.700000         CONSTANT HEAD       1
    1058       1       3     408       3.700000         CONSTANT HEAD       1
    1059       1       3     409       3.700000         CONSTANT HEAD       1
    1060       1       3     410       3.700000         CONSTANT HEAD       1
    1061       1       3     411       3.700000         CONSTANT HEAD       1
    1062       1       3     412       3.700000         CONSTANT HEAD       1
    1063       1       3     413       3.700000         CONSTANT HEAD       1
    1064       1       3     414       3.700000         CONSTANT HEAD       1
    1065       1       3     415       3.700000         CONSTANT HEAD       1
    1066       1       3     416       3.700000         CONSTANT HEAD       1
    1067       1       3     417       3.700000         CONSTANT HEAD       1
    1068       1       3     418       3.700000         CONSTANT HEAD       1
    1069       1       3     419       3.700000         CONSTANT HEAD       1
    1070       1       3     420       3.700000         CONSTANT HEAD       1
    1071       1       3     421       3.700000         CONSTANT HEAD       1
    1072       1       3     422       3.700000         CONSTANT HEAD       1
    1073       1       3     423       3.700000         CONSTANT HEAD       1
    1074       1       3     424       3.700000         CONSTANT HEAD       1
    1075       1       3     425       3.700000         CONSTANT HEAD       1
    1076       1       3     426       3.700000         CONSTANT HEAD       1
    1077       1       3     427       3.700000         CONSTANT HEAD       1
    1078       1       3     428       3.700000         CONSTANT HEAD       1
    1079       1       3     429       3.700000         CONSTANT HEAD       1
    1080       1       3     430       3.700000         CONSTANT HEAD       1
    1081       1       3     431       3.700000         CONSTANT HEAD       1
    1082       1       3     432       3.700000         CONSTANT HEAD       1
    1083       1       3     433       3.700000         CONSTANT HEAD       1
    1084       1       3     434       3.700000         CONSTANT HEAD       1
    1085       1       3     435       3.700000         CONSTANT HEAD       1
    1086       1       3     436       3.700000         CONSTANT HEAD       1
    1087       1       3     437       3.700000         CONSTANT HEAD       1
    1088       1       3     438       3.700000         CONSTANT HEAD       1
    1089       1       3     439       3.700000         CONSTANT HEAD       1
    1090       1       3     440       3.700000         CONSTANT HEAD       1
    1091       1       3     441       3.700000         CONSTANT HEAD       1
    1092       1       3     442       3.700000         CONSTANT HEAD       1
    1093       1       3     443       3.700000         CONSTANT HEAD       1
    1094       1       3     444       3.700000         CONSTANT HEAD       1
    1095       1       3     445       3.700000         CONSTANT HEAD       1
    1096       1       3     446       3.700000         CONSTANT HEAD       1
    1097       1       3     447       3.700000         CONSTANT HEAD       1
    1098       1       3     448       3.700000         CONSTANT HEAD       1
    1099       1       3     449       3.700000         CONSTANT HEAD       1
    1100       1       3     450       3.700000         CONSTANT HEAD       1
    1101       1       3     451       3.700000         CONSTANT HEAD       1
    1102       1       3     452       3.700000         CONSTANT HEAD       1
    1103       1       3     453       3.700000         CONSTANT HEAD       1
    1104       1       3     454       3.700000         CONSTANT HEAD       1
    1105       1       3     455       3.700000         CONSTANT HEAD       1
    1106       1       3     456       3.700000         CONSTANT HEAD       1
    1107       1       3     457       3.700000         CONSTANT HEAD       1
    1108       1       3     458       3.700000         CONSTANT HEAD       1
    1109       1       3     459       3.700000         CONSTANT HEAD       1
    1110       1       3     460       3.700000         CONSTANT HEAD       1
    1111       1       3     461       3.700000         CONSTANT HEAD       1
    1112       1       3     462       3.700000         CONSTANT HEAD       1
    1113       1       3     463       3.700000         CONSTANT HEAD       1
    1114       1       3     464       3.700000         CONSTANT HEAD       1
    1115       1       3     465       3.700000         CONSTANT HEAD       1
    1116       1       3     466       3.700000         CONSTANT HEAD       1
    1117       1       3     467       3.700000         CONSTANT HEAD       1
    1118       1       3     468       3.700000         CONSTANT HEAD       1
    1119       1       3     469       3.700000         CONSTANT HEAD       1
    1120       1       3     470       3.700000         CONSTANT HEAD       1
    1121       1       3     471       3.700000         CONSTANT HEAD       1
    1122       1       3     472       3.700000         CONSTANT HEAD       1
    1123       1       3     473       3.700000         CONSTANT HEAD       1
    1124       1       3     474       3.700000         CONSTANT HEAD       1
    1125       1       3     475       3.700000         CONSTANT HEAD       1
    1126       1       3     476       3.700000         CONSTANT HEAD       1
    1127       1       3     477       3.700000         CONSTANT HEAD       1
    1128       1       3     478       3.700000         CONSTANT HEAD       1
    1129       1       3     479       3.700000         CONSTANT HEAD       1
    1130       1       3     480       3.700000         CONSTANT HEAD       1
    1131       1       3     481       3.700000         CONSTANT HEAD       1
    1132       1       3     482       3.700000         CONSTANT HEAD       1
    1133       1       3     483       3.700000         CONSTANT HEAD       1
    1134       1       3     484       3.700000         CONSTANT HEAD       1
    1135       1       3     485       3.700000         CONSTANT HEAD       1
    1136       1       3     486       3.700000         CONSTANT HEAD       1
    1137       1       3     487       3.700000         CONSTANT HEAD       1
    1138       1       3     488       3.700000         CONSTANT HEAD       1
    1139       1       3     489       3.700000         CONSTANT HEAD       1
    1140       1       3     490       3.700000         CONSTANT HEAD       1
    1141       1       3     491       3.700000         CONSTANT HEAD       1
    1142       1       3     492       3.700000         CONSTANT HEAD       1
    1143       1       3     493       3.700000         CONSTANT HEAD       1
    1144       1       3     494       3.700000         CONSTANT HEAD       1
    1145       1       3     495       3.700000         CONSTANT HEAD       1
    1146       1       3     496       3.700000         CONSTANT HEAD       1
    1147       1       3     497       3.700000         CONSTANT HEAD       1
    1148       1       3     498       3.700000         CONSTANT HEAD       1
    1149       1       3     499       3.700000         CONSTANT HEAD       1
    1150       1       3     500       3.700000         CONSTANT HEAD       1
    1151       1       3     501       3.700000         CONSTANT HEAD       1
    1152       1       3     502       3.700000         CONSTANT HEAD       1
    1153       1       3     503       3.700000         CONSTANT HEAD       1
    1154       1       3     504       3.700000         CONSTANT HEAD       1
    1155       1       3     505       3.700000         CONSTANT HEAD       1
    1156       1       3     506       3.700000         CONSTANT HEAD       1
    1157       1       3     507       3.700000         CONSTANT HEAD       1
    1158       1       3     508       3.700000         CONSTANT HEAD       1
    1159       1       3     509       3.700000         CONSTANT HEAD       1
    1160       1       3     510       3.700000         CONSTANT HEAD       1
    1161       1       3     511       3.700000         CONSTANT HEAD       1
    1162       1       3     512       3.700000         CONSTANT HEAD       1
    1163       1       3     513       3.700000         CONSTANT HEAD       1
    1164       1       3     514       3.700000         CONSTANT HEAD       1
    1165       1       3     515       3.700000         CONSTANT HEAD       1
    1166       1       3     516       3.700000         CONSTANT HEAD       1
    1167       1       3     517       3.700000         CONSTANT HEAD       1
    1168       1       3     518       3.700000         CONSTANT HEAD       1
    1169       1       3     519       3.700000         CONSTANT HEAD       1
    1170       1       3     520       3.700000         CONSTANT HEAD       1
    1171       1       3     521       3.700000         CONSTANT HEAD       1
    1172       1       3     522       3.700000         CONSTANT HEAD       1
    1173       1       3     523       3.700000         CONSTANT HEAD       1
    1174       1       3     524       3.700000         CONSTANT HEAD       1
    1175       1       3     525       3.700000         CONSTANT HEAD       1
    1176       1       3     526       3.700000         CONSTANT HEAD       1
    1177       1       3     527       3.700000         CONSTANT HEAD       1
    1178       1       3     528       3.700000         CONSTANT HEAD       1
    1179       1       3     529       3.700000         CONSTANT HEAD       1
    1180       1       3     530       3.700000         CONSTANT HEAD       1
    1181       1       3     531       3.700000         CONSTANT HEAD       1
    1182       1       3     532       3.700000         CONSTANT HEAD       1
    1183       1       3     533       3.700000         CONSTANT HEAD       1
    1184       1       3     534       3.700000         CONSTANT HEAD       1
    1185       1       3     535       3.700000         CONSTANT HEAD       1
    1186       1       3     536       3.700000         CONSTANT HEAD       1
    1187       1       3     537       3.700000         CONSTANT HEAD       1
    1188       1       3     538       3.700000         CONSTANT HEAD       1
    1189       1       3     539       3.700000         CONSTANT HEAD       1
    1190       1       3     540       3.700000         CONSTANT HEAD       1
    1191       1       3     541       3.700000         CONSTANT HEAD       1
    1192       1       3     542       3.700000         CONSTANT HEAD       1
    1193       1       3     543       3.700000         CONSTANT HEAD       1
    1194       1       3     544       3.700000         CONSTANT HEAD       1
    1195       1       3     545       3.700000         CONSTANT HEAD       1
    1196       1       3     546       3.700000         CONSTANT HEAD       1
    1197       1       3     547       3.700000         CONSTANT HEAD       1
    1198       1       3     548       3.700000         CONSTANT HEAD       1
    1199       1       3     549       3.700000         CONSTANT HEAD       1
    1200       1       3     550       3.700000         CONSTANT HEAD       1
    1201       1       3     551       3.700000         CONSTANT HEAD       1
    1202       1       3     552       3.700000         CONSTANT HEAD       1
    1203       1       3     553       3.700000         CONSTANT HEAD       1
    1204       1       3     554       3.700000         CONSTANT HEAD       1
    1205       1       3     555       3.700000         CONSTANT HEAD       1
    1206       1       3     556       3.700000         CONSTANT HEAD       1
    1207       1       3     557       3.700000         CONSTANT HEAD       1
    1208       1       3     558       3.700000         CONSTANT HEAD       1
    1209       1       3     559       3.700000         CONSTANT HEAD       1
    1210       1       3     560       3.700000         CONSTANT HEAD       1
    1211       1       3     561       3.700000         CONSTANT HEAD       1
    1212       1       3     562       3.700000         CONSTANT HEAD       1
    1213       1       3     563       3.700000         CONSTANT HEAD       1
    1214       1       3     564       3.700000         CONSTANT HEAD       1
    1215       1       3     565       3.700000         CONSTANT HEAD       1
    1216       1       3     566       3.700000         CONSTANT HEAD       1
    1217       1       3     567       3.700000         CONSTANT HEAD       1
    1218       1       3     568       3.700000         CONSTANT HEAD       1
    1219       1       3     569       3.700000         CONSTANT HEAD       1
    1220       1       3     570       3.700000         CONSTANT HEAD       1
    1221       1       3     571       3.700000         CONSTANT HEAD       1
    1222       1       3     572       3.700000         CONSTANT HEAD       1
    1223       1       3     573       3.700000         CONSTANT HEAD       1
    1224       1       3     574       3.700000         CONSTANT HEAD       1
    1225       1       3     575       3.700000         CONSTANT HEAD       1
    1226       1       3     576       3.700000         CONSTANT HEAD       1
    1227       1       3     577       3.700000         CONSTANT HEAD       1
    1228       1       3     578       3.700000         CONSTANT HEAD       1
    1229       1       3     579       3.700000         CONSTANT HEAD       1
    1230       1       3     580       3.700000         CONSTANT HEAD       1
    1231       1       3     581       3.700000         CONSTANT HEAD       1
    1232       1       3     582       3.700000         CONSTANT HEAD       1
    1233       1       3     583       3.700000         CONSTANT HEAD       1
    1234       1       3     584       3.700000         CONSTANT HEAD       1
    1235       1       3     585       3.700000         CONSTANT HEAD       1
    1236       1       3     586       3.700000         CONSTANT HEAD       1
    1237       1       3     587       3.700000         CONSTANT HEAD       1
    1238       1       3     588       3.700000         CONSTANT HEAD       1
    1239       1       3     589       3.700000         CONSTANT HEAD       1
    1240       1       3     590       3.700000         CONSTANT HEAD       1
    1241       1       3     591       3.700000         CONSTANT HEAD       1
    1242       1       3     592       3.700000         CONSTANT HEAD       1
    1243       1       3     593       3.700000         CONSTANT HEAD       1
    1244       1       3     594       3.700000         CONSTANT HEAD       1
    1245       1       3     595       3.700000         CONSTANT HEAD       1
    1246       1       3     596       3.700000         CONSTANT HEAD       1
    1247       1       3     597       3.700000         CONSTANT HEAD       1
    1248       1       3     598       3.700000         CONSTANT HEAD       1
    1249       1       3     599       3.700000         CONSTANT HEAD       1
    1250       1       3     600       3.700000         CONSTANT HEAD       1
    1251       1       3     601       3.700000         CONSTANT HEAD       1
    1252       1       3     602       3.700000         CONSTANT HEAD       1
    1253       1       3     603       3.700000         CONSTANT HEAD       1
    1254       1       3     604       3.700000         CONSTANT HEAD       1
    1255       1       3     605       3.700000         CONSTANT HEAD       1
    1256       1       3     606       3.700000         CONSTANT HEAD       1
    1257       1       3     607       3.700000         CONSTANT HEAD       1
    1258       1       3     608       3.700000         CONSTANT HEAD       1
    1259       1       3     609       3.700000         CONSTANT HEAD       1
    1260       1       3     610       3.700000         CONSTANT HEAD       1
    1261       1       3     611       3.700000         CONSTANT HEAD       1
    1262       1       3     612       3.700000         CONSTANT HEAD       1
    1263       1       3     613       3.700000         CONSTANT HEAD       1
    1264       1       3     614       3.700000         CONSTANT HEAD       1
    1265       1       3     615       3.700000         CONSTANT HEAD       1
    1266       1       3     616       3.700000         CONSTANT HEAD       1
    1267       1       3     617       3.700000         CONSTANT HEAD       1
    1268       1       3     618       3.700000         CONSTANT HEAD       1
    1269       1       3     619       3.700000         CONSTANT HEAD       1
    1270       1       3     620       3.700000         CONSTANT HEAD       1
    1271       1       3     621       3.700000         CONSTANT HEAD       1
    1272       1       3     622       3.700000         CONSTANT HEAD       1
    1273       1       3     623       3.700000         CONSTANT HEAD       1
    1274       1       3     624       3.700000         CONSTANT HEAD       1
    1275       1       3     625       3.700000         CONSTANT HEAD       1
    1276       1       3     626       3.700000         CONSTANT HEAD       1
    1277       1       3     627       3.700000         CONSTANT HEAD       1
    1278       1       3     628       3.700000         CONSTANT HEAD       1
    1279       1       3     629       3.700000         CONSTANT HEAD       1
    1280       1       3     630       3.700000         CONSTANT HEAD       1
    1281       1       3     631       3.700000         CONSTANT HEAD       1
    1282       1       3     632       3.700000         CONSTANT HEAD       1
    1283       1       3     633       3.700000         CONSTANT HEAD       1
    1284       1       3     634       3.700000         CONSTANT HEAD       1
    1285       1       3     635       3.700000         CONSTANT HEAD       1
    1286       1       3     636       3.700000         CONSTANT HEAD       1
    1287       1       3     637       3.700000         CONSTANT HEAD       1
    1288       1       3     638       3.700000         CONSTANT HEAD       1
    1289       1       3     639       3.700000         CONSTANT HEAD       1
    1290       1       3     640       3.700000         CONSTANT HEAD       1
    1291       1       3     641       3.700000         CONSTANT HEAD       1
    1292       1       3     642       3.700000         CONSTANT HEAD       1
    1293       1       3     643       3.700000         CONSTANT HEAD       1
    1294       1       3     644       3.700000         CONSTANT HEAD       1
    1295       1       3     645       3.700000         CONSTANT HEAD       1
    1296       1       3     646       3.700000         CONSTANT HEAD       1
    1297       1       3     647       3.700000         CONSTANT HEAD       1
    1298       1       3     648       3.700000         CONSTANT HEAD       1
    1299       1       3     649       3.700000         CONSTANT HEAD       1
    1300       1       3     650       3.700000         CONSTANT HEAD       1


 STREAM BOUNDARY CONDITIONS
 --------------------------


 NO. OF STREAM SINKS/SOURCES OF SPECIFIED CONCENTRATIONS =    1 IN STRESS PERIOD  1

      SFTN    BC-TYPE       CONC(1,NCOMP)
         1  HEADWATER       3.700000    


                                          ================================================
                                                         TIME STEP NO.  001
                                          ================================================

 FROM TIME =   0.0000     TO    30600.    


                    "THKSAT          " FLOW TERMS FOR TIME STEP  1, STRESS PERIOD  1 READ UNFORMATTED ON UNIT 39
                    --------------------------------------------------------------------------------------------

                    "QXX             " FLOW TERMS FOR TIME STEP  1, STRESS PERIOD  1 READ UNFORMATTED ON UNIT 39
                    --------------------------------------------------------------------------------------------

                    "QYY             " FLOW TERMS FOR TIME STEP  1, STRESS PERIOD  1 READ UNFORMATTED ON UNIT 39
                    --------------------------------------------------------------------------------------------

                    "STO             " FLOW TERMS FOR TIME STEP  1, STRESS PERIOD  1 READ UNFORMATTED ON UNIT 39
                    --------------------------------------------------------------------------------------------

 MAXIMUM STEPSIZE DURING WHICH ANY PARTICLE CANNOT MOVE MORE THAN ONE CELL
 = 0.1912E+05(WHEN MIN. R.F.=1)  AT K=   1, I=   2, J= 106

 MAXIMUM STEPSIZE WHICH MEETS STABILITY CRITERION OF THE ADVECTION TERM
 (FOR PURE FINITE-DIFFERENCE OPTION, MIXELM=0) 
 = 0.1677E+05(WHEN MIN. R.F.=1)  AT K=   1, I=   3, J= 650

                    "CNH             " FLOW TERMS FOR TIME STEP  1, STRESS PERIOD  1 READ UNFORMATTED ON UNIT 39
                    --------------------------------------------------------------------------------------------

                    "SFR FLOWS SS    " FLOW TERMS FOR TIME STEP  1, STRESS PERIOD  1 READ UNFORMATTED ON UNIT 39
                    --------------------------------------------------------------------------------------------


 TOTAL NUMBER OF POINT SOURCES/SINKS PRESENT IN THE FLOW MODEL =  1300

 MAXIMUM STEPSIZE WHICH MEETS STABILITY CRITERION OF THE SINK & SOURCE TERM
 = 0.1791E+05(WHEN MIN. R.F.=1)  AT K=   1, I=   1, J=   1


     2 CALLS TO GCG PACKAGE FOR TRANSPORT TIME STEP     1 IN FLOW TIME STEP     1 STRESS PERIOD     1
      2 TOTAL ITERATIONS
  MAXIMUM CONCENTRATION CHANGES FOR EACH ITERATION:
  MAX. CHANGE LAYER,ROW,COL MAX. CHANGE LAYER,ROW,COL MAX. CHANGE LAYER,ROW,COL MAX. CHANGE LAYER,ROW,COL MAX. CHANGE LAYER,ROW,COL
 ------------------------------------------------------------------------------------------------------------------------------------
    0.000     (  1,  1,  1)   0.000     (  1,  1,  1)


                     STREAM MASS BUDGETS AT END OF TRANSPORT STEP    1, TIME STEP    1, STRESS PERIOD    1 FOR COMPONENT   1
                     -------------------------------------------------------------------------------------------------------

                                         CUMULATIVE MASS [M]                                     MASS FOR THIS TIME STEP [M]
                                         -------------------                                    --------------
                      STREAM DEPLETION =  0.3962266E-05                      STREAM DEPLETION =  0.3962266E-05
                      INFLOW TO STREAM =   8.325000                          INFLOW TO STREAM =   8.325000    
                          GW TO STREAM =  0.9990391                              GW TO STREAM =  0.9990391    
                         PRECIPITATION =   0.000000                             PRECIPITATION =   0.000000    
                                RUNOFF =   0.000000                                    RUNOFF =   0.000000    
                CONSTANT CONCENTRATION =   0.000000                    CONSTANT CONCENTRATION =   0.000000    
                             MASS GAIN =   0.000000                                 MASS GAIN =   0.000000    
                                         -------------------                                    --------------
                              TOTAL IN =   9.324043                                  TOTAL IN =   9.324042    

                   STREAM ACCUMULATION =  0.1624146E-04                   STREAM ACCUMULATION =  0.1624146E-04
                        STREAM OUTFLOW =   9.324029                            STREAM OUTFLOW =   9.324029    
                          STREAM TO GW =   0.000000                              STREAM TO GW =   0.000000    
                CONSTANT CONCENTRATION =   0.000000                    CONSTANT CONCENTRATION =   0.000000    
                           EVAPORATION =   0.000000                               EVAPORATION =   0.000000    
                             MASS LOSS =   0.000000                                 MASS LOSS =   0.000000    
                                         -------------------                                    --------------
                             TOTAL OUT =   9.324045                                 TOTAL OUT =   9.324045    

                        NET (IN - OUT) = -0.1907349E-05                        NET (IN - OUT) = -0.2861023E-05
                 DISCREPANCY (PERCENT) = -0.2045624E-04                 DISCREPANCY (PERCENT) = -0.3068436E-04
                                              FLOW ERR (QIN-QOUT-DV) = -0.9536743E-06 [L3/T]




 >>>>>>>>>>>>>>>>>>>>>>>>>>>>>>>>>>>>>>>>>>>>>>>>>>>>>>>FOR COMPONENT NO. 01<<<<<<<<<<<<<<<<<<<<<<<<<<<<<<<<<<<<<<<<<<<<<<<<<<<<<<<


                                            -------------------------------------------
                                                      TRANSPORT STEP NO.    1
                                            -------------------------------------------

 TOTAL ELAPSED TIME SINCE BEGINNING OF SIMULATION =   180.0000    D   
 .....................................................................

                     CUMULATIVE MASS BUDGETS AT END OF TRANSPORT STEP    1, TIME STEP    1, STRESS PERIOD    1
                     -----------------------------------------------------------------------------------------

                                                             IN                           OUT
                                                      ----------------             ----------------
                               CONSTANT CONCENTRATION:    0.000000                    0.000000    
                                        CONSTANT HEAD:    2.246800                   -1.247790    
                                               STREAM:    0.000000                  -0.9990391    
                               MASS STOR (FLOW MODEL):   0.3035283E-04              -0.4109775E-09
                                MASS STORAGE (SOLUTE):    0.000000                    0.000000    
                            ---------------------------------------------------------------------------
                                              [TOTAL]:    2.246830     KG            -2.246829     KG  

                                                          NET (IN - OUT):   0.1430511E-05
                                                   DISCREPANCY (PERCENT):   0.6366801E-04
     2 CALLS TO GCG PACKAGE FOR TRANSPORT TIME STEP     2 IN FLOW TIME STEP     1 STRESS PERIOD     1
      2 TOTAL ITERATIONS
  MAXIMUM CONCENTRATION CHANGES FOR EACH ITERATION:
  MAX. CHANGE LAYER,ROW,COL MAX. CHANGE LAYER,ROW,COL MAX. CHANGE LAYER,ROW,COL MAX. CHANGE LAYER,ROW,COL MAX. CHANGE LAYER,ROW,COL
 ------------------------------------------------------------------------------------------------------------------------------------
    0.000     (  1,  1,  1)   0.000     (  1,  1,  1)


                     STREAM MASS BUDGETS AT END OF TRANSPORT STEP    2, TIME STEP    1, STRESS PERIOD    1 FOR COMPONENT   1
                     -------------------------------------------------------------------------------------------------------

                                         CUMULATIVE MASS [M]                                     MASS FOR THIS TIME STEP [M]
                                         -------------------                                    --------------
                      STREAM DEPLETION =  0.6596653E-05                      STREAM DEPLETION =  0.2634388E-05
                      INFLOW TO STREAM =   16.65000                          INFLOW TO STREAM =   8.325000    
                          GW TO STREAM =   1.998078                              GW TO STREAM =  0.9990391    
                         PRECIPITATION =   0.000000                             PRECIPITATION =   0.000000    
                                RUNOFF =   0.000000                                    RUNOFF =   0.000000    
                CONSTANT CONCENTRATION =   0.000000                    CONSTANT CONCENTRATION =   0.000000    
                             MASS GAIN =   0.000000                                 MASS GAIN =   0.000000    
                                         -------------------                                    --------------
                              TOTAL IN =   18.64808                                  TOTAL IN =   9.324041    

                   STREAM ACCUMULATION =  0.3081535E-04                   STREAM ACCUMULATION =  0.1457389E-04
                        STREAM OUTFLOW =   18.64806                            STREAM OUTFLOW =   9.324029    
                          STREAM TO GW =   0.000000                              STREAM TO GW =   0.000000    
                CONSTANT CONCENTRATION =   0.000000                    CONSTANT CONCENTRATION =   0.000000    
                           EVAPORATION =   0.000000                               EVAPORATION =   0.000000    
                             MASS LOSS =   0.000000                                 MASS LOSS =   0.000000    
                                         -------------------                                    --------------
                             TOTAL OUT =   18.64809                                 TOTAL OUT =   9.324043    

                        NET (IN - OUT) = -0.3814697E-05                        NET (IN - OUT) = -0.1907349E-05
                 DISCREPANCY (PERCENT) = -0.2045624E-04                 DISCREPANCY (PERCENT) = -0.2045624E-04
                                              FLOW ERR (QIN-QOUT-DV) = -0.9536743E-06 [L3/T]




 >>>>>>>>>>>>>>>>>>>>>>>>>>>>>>>>>>>>>>>>>>>>>>>>>>>>>>>FOR COMPONENT NO. 01<<<<<<<<<<<<<<<<<<<<<<<<<<<<<<<<<<<<<<<<<<<<<<<<<<<<<<<


                                            -------------------------------------------
                                                      TRANSPORT STEP NO.    2
                                            -------------------------------------------

 TOTAL ELAPSED TIME SINCE BEGINNING OF SIMULATION =   360.0000    D   
 .....................................................................

                     CUMULATIVE MASS BUDGETS AT END OF TRANSPORT STEP    2, TIME STEP    1, STRESS PERIOD    1
                     -----------------------------------------------------------------------------------------

                                                             IN                           OUT
                                                      ----------------             ----------------
                               CONSTANT CONCENTRATION:    0.000000                    0.000000    
                                        CONSTANT HEAD:    4.493600                   -2.495579    
                                               STREAM:    0.000000                   -1.998078    
                               MASS STOR (FLOW MODEL):   0.6070567E-04              -0.8219551E-09
                                MASS STORAGE (SOLUTE):    0.000000                    0.000000    
                            ---------------------------------------------------------------------------
                                              [TOTAL]:    4.493660     KG            -4.493658     KG  

                                                          NET (IN - OUT):   0.2861023E-05
                                                   DISCREPANCY (PERCENT):   0.6366801E-04
     2 CALLS TO GCG PACKAGE FOR TRANSPORT TIME STEP     3 IN FLOW TIME STEP     1 STRESS PERIOD     1
      2 TOTAL ITERATIONS
  MAXIMUM CONCENTRATION CHANGES FOR EACH ITERATION:
  MAX. CHANGE LAYER,ROW,COL MAX. CHANGE LAYER,ROW,COL MAX. CHANGE LAYER,ROW,COL MAX. CHANGE LAYER,ROW,COL MAX. CHANGE LAYER,ROW,COL
 ------------------------------------------------------------------------------------------------------------------------------------
    0.000     (  1,  1,  1)   0.000     (  1,  1,  1)


                     STREAM MASS BUDGETS AT END OF TRANSPORT STEP    3, TIME STEP    1, STRESS PERIOD    1 FOR COMPONENT   1
                     -------------------------------------------------------------------------------------------------------

                                         CUMULATIVE MASS [M]                                     MASS FOR THIS TIME STEP [M]
                                         -------------------                                    --------------
                      STREAM DEPLETION =  0.8723477E-05                      STREAM DEPLETION =  0.2126823E-05
                      INFLOW TO STREAM =   24.97500                          INFLOW TO STREAM =   8.325000    
                          GW TO STREAM =   2.997117                              GW TO STREAM =  0.9990391    
                         PRECIPITATION =   0.000000                             PRECIPITATION =   0.000000    
                                RUNOFF =   0.000000                                    RUNOFF =   0.000000    
                CONSTANT CONCENTRATION =   0.000000                    CONSTANT CONCENTRATION =   0.000000    
                             MASS GAIN =   0.000000                                 MASS GAIN =   0.000000    
                                         -------------------                                    --------------
                              TOTAL IN =   27.97212                                  TOTAL IN =   9.324040    

                   STREAM ACCUMULATION =  0.4461643E-04                   STREAM ACCUMULATION =  0.1380108E-04
                        STREAM OUTFLOW =   27.97209                            STREAM OUTFLOW =   9.324029    
                          STREAM TO GW =   0.000000                              STREAM TO GW =   0.000000    
                CONSTANT CONCENTRATION =   0.000000                    CONSTANT CONCENTRATION =   0.000000    
                           EVAPORATION =   0.000000                               EVAPORATION =   0.000000    
                             MASS LOSS =   0.000000                                 MASS LOSS =   0.000000    
                                         -------------------                                    --------------
                             TOTAL OUT =   27.97213                                 TOTAL OUT =   9.324042    

                        NET (IN - OUT) = -0.7629395E-05                        NET (IN - OUT) = -0.1907349E-05
                 DISCREPANCY (PERCENT) = -0.2727499E-04                 DISCREPANCY (PERCENT) = -0.2045624E-04
                                              FLOW ERR (QIN-QOUT-DV) = -0.9536743E-06 [L3/T]




 >>>>>>>>>>>>>>>>>>>>>>>>>>>>>>>>>>>>>>>>>>>>>>>>>>>>>>>FOR COMPONENT NO. 01<<<<<<<<<<<<<<<<<<<<<<<<<<<<<<<<<<<<<<<<<<<<<<<<<<<<<<<


                                            -------------------------------------------
                                                      TRANSPORT STEP NO.    3
                                            -------------------------------------------

 TOTAL ELAPSED TIME SINCE BEGINNING OF SIMULATION =   540.0000    D   
 .....................................................................

                     CUMULATIVE MASS BUDGETS AT END OF TRANSPORT STEP    3, TIME STEP    1, STRESS PERIOD    1
                     -----------------------------------------------------------------------------------------

                                                             IN                           OUT
                                                      ----------------             ----------------
                               CONSTANT CONCENTRATION:    0.000000                    0.000000    
                                        CONSTANT HEAD:    6.740400                   -3.743369    
                                               STREAM:    0.000000                   -2.997117    
                               MASS STOR (FLOW MODEL):   0.9105850E-04              -0.1232933E-08
                                MASS STORAGE (SOLUTE):    0.000000                    0.000000    
                            ---------------------------------------------------------------------------
                                              [TOTAL]:    6.740491     KG            -6.740486     KG  

                                                          NET (IN - OUT):   0.4768372E-05
                                                   DISCREPANCY (PERCENT):   0.7074222E-04
     2 CALLS TO GCG PACKAGE FOR TRANSPORT TIME STEP     4 IN FLOW TIME STEP     1 STRESS PERIOD     1
      2 TOTAL ITERATIONS
  MAXIMUM CONCENTRATION CHANGES FOR EACH ITERATION:
  MAX. CHANGE LAYER,ROW,COL MAX. CHANGE LAYER,ROW,COL MAX. CHANGE LAYER,ROW,COL MAX. CHANGE LAYER,ROW,COL MAX. CHANGE LAYER,ROW,COL
 ------------------------------------------------------------------------------------------------------------------------------------
    0.000     (  1,  1,  1)   0.000     (  1,  1,  1)


                     STREAM MASS BUDGETS AT END OF TRANSPORT STEP    4, TIME STEP    1, STRESS PERIOD    1 FOR COMPONENT   1
                     -------------------------------------------------------------------------------------------------------

                                         CUMULATIVE MASS [M]                                     MASS FOR THIS TIME STEP [M]
                                         -------------------                                    --------------
                      STREAM DEPLETION =  0.1053808E-04                      STREAM DEPLETION =  0.1814601E-05
                      INFLOW TO STREAM =   33.30000                          INFLOW TO STREAM =   8.325000    
                          GW TO STREAM =   3.996156                              GW TO STREAM =  0.9990391    
                         PRECIPITATION =   0.000000                             PRECIPITATION =   0.000000    
                                RUNOFF =   0.000000                                    RUNOFF =   0.000000    
                CONSTANT CONCENTRATION =   0.000000                    CONSTANT CONCENTRATION =   0.000000    
                             MASS GAIN =   0.000000                                 MASS GAIN =   0.000000    
                                         -------------------                                    --------------
                              TOTAL IN =   37.29617                                  TOTAL IN =   9.324040    

                   STREAM ACCUMULATION =  0.5788381E-04                   STREAM ACCUMULATION =  0.1326738E-04
                        STREAM OUTFLOW =   37.29612                            STREAM OUTFLOW =   9.324029    
                          STREAM TO GW =   0.000000                              STREAM TO GW =   0.000000    
                CONSTANT CONCENTRATION =   0.000000                    CONSTANT CONCENTRATION =   0.000000    
                           EVAPORATION =   0.000000                               EVAPORATION =   0.000000    
                             MASS LOSS =   0.000000                                 MASS LOSS =   0.000000    
                                         -------------------                                    --------------
                             TOTAL OUT =   37.29617                                 TOTAL OUT =   9.324042    

                        NET (IN - OUT) = -0.7629395E-05                        NET (IN - OUT) = -0.1907349E-05
                 DISCREPANCY (PERCENT) = -0.2045624E-04                 DISCREPANCY (PERCENT) = -0.2045624E-04
                                              FLOW ERR (QIN-QOUT-DV) = -0.9536743E-06 [L3/T]




 >>>>>>>>>>>>>>>>>>>>>>>>>>>>>>>>>>>>>>>>>>>>>>>>>>>>>>>FOR COMPONENT NO. 01<<<<<<<<<<<<<<<<<<<<<<<<<<<<<<<<<<<<<<<<<<<<<<<<<<<<<<<


                                            -------------------------------------------
                                                      TRANSPORT STEP NO.    4
                                            -------------------------------------------

 TOTAL ELAPSED TIME SINCE BEGINNING OF SIMULATION =   720.0000    D   
 .....................................................................

                     CUMULATIVE MASS BUDGETS AT END OF TRANSPORT STEP    4, TIME STEP    1, STRESS PERIOD    1
                     -----------------------------------------------------------------------------------------

                                                             IN                           OUT
                                                      ----------------             ----------------
                               CONSTANT CONCENTRATION:    0.000000                    0.000000    
                                        CONSTANT HEAD:    8.987200                   -4.991158    
                                               STREAM:    0.000000                   -3.996156    
                               MASS STOR (FLOW MODEL):   0.1214113E-03              -0.1643910E-08
                                MASS STORAGE (SOLUTE):    0.000000                    0.000000    
                            ---------------------------------------------------------------------------
                                              [TOTAL]:    8.987321     KG            -8.987315     KG  

                                                          NET (IN - OUT):   0.5722046E-05
                                                   DISCREPANCY (PERCENT):   0.6366801E-04
     2 CALLS TO GCG PACKAGE FOR TRANSPORT TIME STEP     5 IN FLOW TIME STEP     1 STRESS PERIOD     1
      2 TOTAL ITERATIONS
  MAXIMUM CONCENTRATION CHANGES FOR EACH ITERATION:
  MAX. CHANGE LAYER,ROW,COL MAX. CHANGE LAYER,ROW,COL MAX. CHANGE LAYER,ROW,COL MAX. CHANGE LAYER,ROW,COL MAX. CHANGE LAYER,ROW,COL
 ------------------------------------------------------------------------------------------------------------------------------------
    0.000     (  1,  1,  1)   0.000     (  1,  1,  1)


                     STREAM MASS BUDGETS AT END OF TRANSPORT STEP    5, TIME STEP    1, STRESS PERIOD    1 FOR COMPONENT   1
                     -------------------------------------------------------------------------------------------------------

                                         CUMULATIVE MASS [M]                                     MASS FOR THIS TIME STEP [M]
                                         -------------------                                    --------------
                      STREAM DEPLETION =  0.1215317E-04                      STREAM DEPLETION =  0.1615090E-05
                      INFLOW TO STREAM =   41.62500                          INFLOW TO STREAM =   8.325000    
                          GW TO STREAM =   4.995195                              GW TO STREAM =  0.9990391    
                         PRECIPITATION =   0.000000                             PRECIPITATION =   0.000000    
                                RUNOFF =   0.000000                                    RUNOFF =   0.000000    
                CONSTANT CONCENTRATION =   0.000000                    CONSTANT CONCENTRATION =   0.000000    
                             MASS GAIN =   0.000000                                 MASS GAIN =   0.000000    
                                         -------------------                                    --------------
                              TOTAL IN =   46.62021                                  TOTAL IN =   9.324040    

                   STREAM ACCUMULATION =  0.7078602E-04                   STREAM ACCUMULATION =  0.1290222E-04
                        STREAM OUTFLOW =   46.62015                            STREAM OUTFLOW =   9.324030    
                          STREAM TO GW =   0.000000                              STREAM TO GW =   0.000000    
                CONSTANT CONCENTRATION =   0.000000                    CONSTANT CONCENTRATION =   0.000000    
                           EVAPORATION =   0.000000                               EVAPORATION =   0.000000    
                             MASS LOSS =   0.000000                                 MASS LOSS =   0.000000    
                                         -------------------                                    --------------
                             TOTAL OUT =   46.62022                                 TOTAL OUT =   9.324043    

                        NET (IN - OUT) = -0.1144409E-04                        NET (IN - OUT) = -0.2861023E-05
                 DISCREPANCY (PERCENT) = -0.2454749E-04                 DISCREPANCY (PERCENT) = -0.3068436E-04
                                              FLOW ERR (QIN-QOUT-DV) = -0.9536743E-06 [L3/T]




 >>>>>>>>>>>>>>>>>>>>>>>>>>>>>>>>>>>>>>>>>>>>>>>>>>>>>>>FOR COMPONENT NO. 01<<<<<<<<<<<<<<<<<<<<<<<<<<<<<<<<<<<<<<<<<<<<<<<<<<<<<<<


                                            -------------------------------------------
                                                      TRANSPORT STEP NO.    5
                                            -------------------------------------------

 TOTAL ELAPSED TIME SINCE BEGINNING OF SIMULATION =   900.0000    D   
 .....................................................................

                     CUMULATIVE MASS BUDGETS AT END OF TRANSPORT STEP    5, TIME STEP    1, STRESS PERIOD    1
                     -----------------------------------------------------------------------------------------

                                                             IN                           OUT
                                                      ----------------             ----------------
                               CONSTANT CONCENTRATION:    0.000000                    0.000000    
                                        CONSTANT HEAD:    11.23400                   -6.238948    
                                               STREAM:    0.000000                   -4.995195    
                               MASS STOR (FLOW MODEL):   0.1517642E-03              -0.2054888E-08
                                MASS STORAGE (SOLUTE):    0.000000                    0.000000    
                            ---------------------------------------------------------------------------
                                              [TOTAL]:    11.23415     KG            -11.23414     KG  

                                                          NET (IN - OUT):   0.7629395E-05
                                                   DISCREPANCY (PERCENT):   0.6791254E-04
     2 CALLS TO GCG PACKAGE FOR TRANSPORT TIME STEP     6 IN FLOW TIME STEP     1 STRESS PERIOD     1
      2 TOTAL ITERATIONS
  MAXIMUM CONCENTRATION CHANGES FOR EACH ITERATION:
  MAX. CHANGE LAYER,ROW,COL MAX. CHANGE LAYER,ROW,COL MAX. CHANGE LAYER,ROW,COL MAX. CHANGE LAYER,ROW,COL MAX. CHANGE LAYER,ROW,COL
 ------------------------------------------------------------------------------------------------------------------------------------
    0.000     (  1,  1,  1)   0.000     (  1,  1,  1)


                     STREAM MASS BUDGETS AT END OF TRANSPORT STEP    6, TIME STEP    1, STRESS PERIOD    1 FOR COMPONENT   1
                     -------------------------------------------------------------------------------------------------------

                                         CUMULATIVE MASS [M]                                     MASS FOR THIS TIME STEP [M]
                                         -------------------                                    --------------
                      STREAM DEPLETION =  0.1360273E-04                      STREAM DEPLETION =  0.1449565E-05
                      INFLOW TO STREAM =   49.95000                          INFLOW TO STREAM =   8.325000    
                          GW TO STREAM =   5.994235                              GW TO STREAM =  0.9990391    
                         PRECIPITATION =   0.000000                             PRECIPITATION =   0.000000    
                                RUNOFF =   0.000000                                    RUNOFF =   0.000000    
                CONSTANT CONCENTRATION =   0.000000                    CONSTANT CONCENTRATION =   0.000000    
                             MASS GAIN =   0.000000                                 MASS GAIN =   0.000000    
                                         -------------------                                    --------------
                              TOTAL IN =   55.94425                                  TOTAL IN =   9.324040    

                   STREAM ACCUMULATION =  0.8338529E-04                   STREAM ACCUMULATION =  0.1259927E-04
                        STREAM OUTFLOW =   55.94418                            STREAM OUTFLOW =   9.324030    
                          STREAM TO GW =   0.000000                              STREAM TO GW =   0.000000    
                CONSTANT CONCENTRATION =   0.000000                    CONSTANT CONCENTRATION =   0.000000    
                           EVAPORATION =   0.000000                               EVAPORATION =   0.000000    
                             MASS LOSS =   0.000000                                 MASS LOSS =   0.000000    
                                         -------------------                                    --------------
                             TOTAL OUT =   55.94426                                 TOTAL OUT =   9.324042    

                        NET (IN - OUT) = -0.1144409E-04                        NET (IN - OUT) = -0.1907349E-05
                 DISCREPANCY (PERCENT) = -0.2045624E-04                 DISCREPANCY (PERCENT) = -0.2045624E-04
                                              FLOW ERR (QIN-QOUT-DV) = -0.9536743E-06 [L3/T]




 >>>>>>>>>>>>>>>>>>>>>>>>>>>>>>>>>>>>>>>>>>>>>>>>>>>>>>>FOR COMPONENT NO. 01<<<<<<<<<<<<<<<<<<<<<<<<<<<<<<<<<<<<<<<<<<<<<<<<<<<<<<<


                                            -------------------------------------------
                                                      TRANSPORT STEP NO.    6
                                            -------------------------------------------

 TOTAL ELAPSED TIME SINCE BEGINNING OF SIMULATION =   1080.000    D   
 .....................................................................

                     CUMULATIVE MASS BUDGETS AT END OF TRANSPORT STEP    6, TIME STEP    1, STRESS PERIOD    1
                     -----------------------------------------------------------------------------------------

                                                             IN                           OUT
                                                      ----------------             ----------------
                               CONSTANT CONCENTRATION:    0.000000                    0.000000    
                                        CONSTANT HEAD:    13.48080                   -7.486737    
                                               STREAM:    0.000000                   -5.994235    
                               MASS STOR (FLOW MODEL):   0.1821170E-03              -0.2465865E-08
                                MASS STORAGE (SOLUTE):    0.000000                    0.000000    
                            ---------------------------------------------------------------------------
                                              [TOTAL]:    13.48098     KG            -13.48097     KG  

                                                          NET (IN - OUT):   0.8583069E-05
                                                   DISCREPANCY (PERCENT):   0.6366801E-04
     2 CALLS TO GCG PACKAGE FOR TRANSPORT TIME STEP     7 IN FLOW TIME STEP     1 STRESS PERIOD     1
      2 TOTAL ITERATIONS
  MAXIMUM CONCENTRATION CHANGES FOR EACH ITERATION:
  MAX. CHANGE LAYER,ROW,COL MAX. CHANGE LAYER,ROW,COL MAX. CHANGE LAYER,ROW,COL MAX. CHANGE LAYER,ROW,COL MAX. CHANGE LAYER,ROW,COL
 ------------------------------------------------------------------------------------------------------------------------------------
    0.000     (  1,  1,  1)   0.000     (  1,  1,  1)


                     STREAM MASS BUDGETS AT END OF TRANSPORT STEP    7, TIME STEP    1, STRESS PERIOD    1 FOR COMPONENT   1
                     -------------------------------------------------------------------------------------------------------

                                         CUMULATIVE MASS [M]                                     MASS FOR THIS TIME STEP [M]
                                         -------------------                                    --------------
                      STREAM DEPLETION =  0.1489840E-04                      STREAM DEPLETION =  0.1295672E-05
                      INFLOW TO STREAM =   58.27500                          INFLOW TO STREAM =   8.325000    
                          GW TO STREAM =   6.993274                              GW TO STREAM =  0.9990391    
                         PRECIPITATION =   0.000000                             PRECIPITATION =   0.000000    
                                RUNOFF =   0.000000                                    RUNOFF =   0.000000    
                CONSTANT CONCENTRATION =   0.000000                    CONSTANT CONCENTRATION =   0.000000    
                             MASS GAIN =   0.000000                                 MASS GAIN =   0.000000    
                                         -------------------                                    --------------
                              TOTAL IN =   65.26829                                  TOTAL IN =   9.324039    

                   STREAM ACCUMULATION =  0.9572819E-04                   STREAM ACCUMULATION =  0.1234289E-04
                        STREAM OUTFLOW =   65.26820                            STREAM OUTFLOW =   9.324030    
                          STREAM TO GW =   0.000000                              STREAM TO GW =   0.000000    
                CONSTANT CONCENTRATION =   0.000000                    CONSTANT CONCENTRATION =   0.000000    
                           EVAPORATION =   0.000000                               EVAPORATION =   0.000000    
                             MASS LOSS =   0.000000                                 MASS LOSS =   0.000000    
                                         -------------------                                    --------------
                             TOTAL OUT =   65.26830                                 TOTAL OUT =   9.324042    

                        NET (IN - OUT) = -0.1525879E-04                        NET (IN - OUT) = -0.2861023E-05
                 DISCREPANCY (PERCENT) = -0.2337856E-04                 DISCREPANCY (PERCENT) = -0.3068436E-04
                                              FLOW ERR (QIN-QOUT-DV) = -0.9536743E-06 [L3/T]




 >>>>>>>>>>>>>>>>>>>>>>>>>>>>>>>>>>>>>>>>>>>>>>>>>>>>>>>FOR COMPONENT NO. 01<<<<<<<<<<<<<<<<<<<<<<<<<<<<<<<<<<<<<<<<<<<<<<<<<<<<<<<


                                            -------------------------------------------
                                                      TRANSPORT STEP NO.    7
                                            -------------------------------------------

 TOTAL ELAPSED TIME SINCE BEGINNING OF SIMULATION =   1260.000    D   
 .....................................................................

                     CUMULATIVE MASS BUDGETS AT END OF TRANSPORT STEP    7, TIME STEP    1, STRESS PERIOD    1
                     -----------------------------------------------------------------------------------------

                                                             IN                           OUT
                                                      ----------------             ----------------
                               CONSTANT CONCENTRATION:    0.000000                    0.000000    
                                        CONSTANT HEAD:    15.72760                   -8.734527    
                                               STREAM:    0.000000                   -6.993274    
                               MASS STOR (FLOW MODEL):   0.2124698E-03              -0.2876843E-08
                                MASS STORAGE (SOLUTE):    0.000000                    0.000000    
                            ---------------------------------------------------------------------------
                                              [TOTAL]:    15.72781     KG            -15.72780     KG  

                                                          NET (IN - OUT):   0.1049042E-04
                                                   DISCREPANCY (PERCENT):   0.6669982E-04
     2 CALLS TO GCG PACKAGE FOR TRANSPORT TIME STEP     8 IN FLOW TIME STEP     1 STRESS PERIOD     1
      2 TOTAL ITERATIONS
  MAXIMUM CONCENTRATION CHANGES FOR EACH ITERATION:
  MAX. CHANGE LAYER,ROW,COL MAX. CHANGE LAYER,ROW,COL MAX. CHANGE LAYER,ROW,COL MAX. CHANGE LAYER,ROW,COL MAX. CHANGE LAYER,ROW,COL
 ------------------------------------------------------------------------------------------------------------------------------------
    0.000     (  1,  1,  1)   0.000     (  1,  1,  1)


                     STREAM MASS BUDGETS AT END OF TRANSPORT STEP    8, TIME STEP    1, STRESS PERIOD    1 FOR COMPONENT   1
                     -------------------------------------------------------------------------------------------------------

                                         CUMULATIVE MASS [M]                                     MASS FOR THIS TIME STEP [M]
                                         -------------------                                    --------------
                      STREAM DEPLETION =  0.1609290E-04                      STREAM DEPLETION =  0.1194499E-05
                      INFLOW TO STREAM =   66.60000                          INFLOW TO STREAM =   8.325000    
                          GW TO STREAM =   7.992313                              GW TO STREAM =  0.9990391    
                         PRECIPITATION =   0.000000                             PRECIPITATION =   0.000000    
                                RUNOFF =   0.000000                                    RUNOFF =   0.000000    
                CONSTANT CONCENTRATION =   0.000000                    CONSTANT CONCENTRATION =   0.000000    
                             MASS GAIN =   0.000000                                 MASS GAIN =   0.000000    
                                         -------------------                                    --------------
                              TOTAL IN =   74.59233                                  TOTAL IN =   9.324039    

                   STREAM ACCUMULATION =  0.1078846E-03                   STREAM ACCUMULATION =  0.1215642E-04
                        STREAM OUTFLOW =   74.59223                            STREAM OUTFLOW =   9.324030    
                          STREAM TO GW =   0.000000                              STREAM TO GW =   0.000000    
                CONSTANT CONCENTRATION =   0.000000                    CONSTANT CONCENTRATION =   0.000000    
                           EVAPORATION =   0.000000                               EVAPORATION =   0.000000    
                             MASS LOSS =   0.000000                                 MASS LOSS =   0.000000    
                                         -------------------                                    --------------
                             TOTAL OUT =   74.59234                                 TOTAL OUT =   9.324042    

                        NET (IN - OUT) = -0.7629395E-05                        NET (IN - OUT) = -0.2861023E-05
                 DISCREPANCY (PERCENT) = -0.1022812E-04                 DISCREPANCY (PERCENT) = -0.3068436E-04
                                              FLOW ERR (QIN-QOUT-DV) = -0.9536743E-06 [L3/T]




 >>>>>>>>>>>>>>>>>>>>>>>>>>>>>>>>>>>>>>>>>>>>>>>>>>>>>>>FOR COMPONENT NO. 01<<<<<<<<<<<<<<<<<<<<<<<<<<<<<<<<<<<<<<<<<<<<<<<<<<<<<<<


                                            -------------------------------------------
                                                      TRANSPORT STEP NO.    8
                                            -------------------------------------------

 TOTAL ELAPSED TIME SINCE BEGINNING OF SIMULATION =   1440.000    D   
 .....................................................................

                     CUMULATIVE MASS BUDGETS AT END OF TRANSPORT STEP    8, TIME STEP    1, STRESS PERIOD    1
                     -----------------------------------------------------------------------------------------

                                                             IN                           OUT
                                                      ----------------             ----------------
                               CONSTANT CONCENTRATION:    0.000000                    0.000000    
                                        CONSTANT HEAD:    17.97440                   -9.982316    
                                               STREAM:    0.000000                   -7.992313    
                               MASS STOR (FLOW MODEL):   0.2428227E-03              -0.3287820E-08
                                MASS STORAGE (SOLUTE):    0.000000                    0.000000    
                            ---------------------------------------------------------------------------
                                              [TOTAL]:    17.97464     KG            -17.97463     KG  

                                                          NET (IN - OUT):   0.1144409E-04
                                                   DISCREPANCY (PERCENT):   0.6366801E-04
     2 CALLS TO GCG PACKAGE FOR TRANSPORT TIME STEP     9 IN FLOW TIME STEP     1 STRESS PERIOD     1
      2 TOTAL ITERATIONS
  MAXIMUM CONCENTRATION CHANGES FOR EACH ITERATION:
  MAX. CHANGE LAYER,ROW,COL MAX. CHANGE LAYER,ROW,COL MAX. CHANGE LAYER,ROW,COL MAX. CHANGE LAYER,ROW,COL MAX. CHANGE LAYER,ROW,COL
 ------------------------------------------------------------------------------------------------------------------------------------
    0.000     (  1,  1,  1)   0.000     (  1,  1,  1)


                     STREAM MASS BUDGETS AT END OF TRANSPORT STEP    9, TIME STEP    1, STRESS PERIOD    1 FOR COMPONENT   1
                     -------------------------------------------------------------------------------------------------------

                                         CUMULATIVE MASS [M]                                     MASS FOR THIS TIME STEP [M]
                                         -------------------                                    --------------
                      STREAM DEPLETION =  0.1718806E-04                      STREAM DEPLETION =  0.1095159E-05
                      INFLOW TO STREAM =   74.92500                          INFLOW TO STREAM =   8.325000    
                          GW TO STREAM =   8.991352                              GW TO STREAM =  0.9990391    
                         PRECIPITATION =   0.000000                             PRECIPITATION =   0.000000    
                                RUNOFF =   0.000000                                    RUNOFF =   0.000000    
                CONSTANT CONCENTRATION =   0.000000                    CONSTANT CONCENTRATION =   0.000000    
                             MASS GAIN =   0.000000                                 MASS GAIN =   0.000000    
                                         -------------------                                    --------------
                              TOTAL IN =   83.91637                                  TOTAL IN =   9.324039    

                   STREAM ACCUMULATION =  0.1198789E-03                   STREAM ACCUMULATION =  0.1199427E-04
                        STREAM OUTFLOW =   83.91626                            STREAM OUTFLOW =   9.324030    
                          STREAM TO GW =   0.000000                              STREAM TO GW =   0.000000    
                CONSTANT CONCENTRATION =   0.000000                    CONSTANT CONCENTRATION =   0.000000    
                           EVAPORATION =   0.000000                               EVAPORATION =   0.000000    
                             MASS LOSS =   0.000000                                 MASS LOSS =   0.000000    
                                         -------------------                                    --------------
                             TOTAL OUT =   83.91638                                 TOTAL OUT =   9.324042    

                        NET (IN - OUT) = -0.1525879E-04                        NET (IN - OUT) = -0.2861023E-05
                 DISCREPANCY (PERCENT) = -0.1818333E-04                 DISCREPANCY (PERCENT) = -0.3068436E-04
                                              FLOW ERR (QIN-QOUT-DV) = -0.9536743E-06 [L3/T]




 >>>>>>>>>>>>>>>>>>>>>>>>>>>>>>>>>>>>>>>>>>>>>>>>>>>>>>>FOR COMPONENT NO. 01<<<<<<<<<<<<<<<<<<<<<<<<<<<<<<<<<<<<<<<<<<<<<<<<<<<<<<<


                                            -------------------------------------------
                                                      TRANSPORT STEP NO.    9
                                            -------------------------------------------

 TOTAL ELAPSED TIME SINCE BEGINNING OF SIMULATION =   1620.000    D   
 .....................................................................

                     CUMULATIVE MASS BUDGETS AT END OF TRANSPORT STEP    9, TIME STEP    1, STRESS PERIOD    1
                     -----------------------------------------------------------------------------------------

                                                             IN                           OUT
                                                      ----------------             ----------------
                               CONSTANT CONCENTRATION:    0.000000                    0.000000    
                                        CONSTANT HEAD:    20.22120                   -11.23011    
                                               STREAM:    0.000000                   -8.991352    
                               MASS STOR (FLOW MODEL):   0.2731755E-03              -0.3698797E-08
                                MASS STORAGE (SOLUTE):    0.000000                    0.000000    
                            ---------------------------------------------------------------------------
                                              [TOTAL]:    20.22147     KG            -20.22146     KG  

                                                          NET (IN - OUT):   0.1144409E-04
                                                   DISCREPANCY (PERCENT):   0.5659378E-04
     2 CALLS TO GCG PACKAGE FOR TRANSPORT TIME STEP    10 IN FLOW TIME STEP     1 STRESS PERIOD     1
      2 TOTAL ITERATIONS
  MAXIMUM CONCENTRATION CHANGES FOR EACH ITERATION:
  MAX. CHANGE LAYER,ROW,COL MAX. CHANGE LAYER,ROW,COL MAX. CHANGE LAYER,ROW,COL MAX. CHANGE LAYER,ROW,COL MAX. CHANGE LAYER,ROW,COL
 ------------------------------------------------------------------------------------------------------------------------------------
    0.000     (  1,  1,  1)   0.000     (  1,  1,  1)


                     STREAM MASS BUDGETS AT END OF TRANSPORT STEP   10, TIME STEP    1, STRESS PERIOD    1 FOR COMPONENT   1
                     -------------------------------------------------------------------------------------------------------

                                         CUMULATIVE MASS [M]                                     MASS FOR THIS TIME STEP [M]
                                         -------------------                                    --------------
                      STREAM DEPLETION =  0.1822136E-04                      STREAM DEPLETION =  0.1033302E-05
                      INFLOW TO STREAM =   83.24999                          INFLOW TO STREAM =   8.325000    
                          GW TO STREAM =   9.990391                              GW TO STREAM =  0.9990391    
                         PRECIPITATION =   0.000000                             PRECIPITATION =   0.000000    
                                RUNOFF =   0.000000                                    RUNOFF =   0.000000    
                CONSTANT CONCENTRATION =   0.000000                    CONSTANT CONCENTRATION =   0.000000    
                             MASS GAIN =   0.000000                                 MASS GAIN =   0.000000    
                                         -------------------                                    --------------
                              TOTAL IN =   93.24040                                  TOTAL IN =   9.324039    

                   STREAM ACCUMULATION =  0.1317598E-03                   STREAM ACCUMULATION =  0.1188089E-04
                        STREAM OUTFLOW =   93.24029                            STREAM OUTFLOW =   9.324030    
                          STREAM TO GW =   0.000000                              STREAM TO GW =   0.000000    
                CONSTANT CONCENTRATION =   0.000000                    CONSTANT CONCENTRATION =   0.000000    
                           EVAPORATION =   0.000000                               EVAPORATION =   0.000000    
                             MASS LOSS =   0.000000                                 MASS LOSS =   0.000000    
                                         -------------------                                    --------------
                             TOTAL OUT =   93.24042                                 TOTAL OUT =   9.324041    

                        NET (IN - OUT) = -0.1525879E-04                        NET (IN - OUT) = -0.1907349E-05
                 DISCREPANCY (PERCENT) = -0.1636500E-04                 DISCREPANCY (PERCENT) = -0.2045625E-04
                                              FLOW ERR (QIN-QOUT-DV) = -0.9536743E-06 [L3/T]




 >>>>>>>>>>>>>>>>>>>>>>>>>>>>>>>>>>>>>>>>>>>>>>>>>>>>>>>FOR COMPONENT NO. 01<<<<<<<<<<<<<<<<<<<<<<<<<<<<<<<<<<<<<<<<<<<<<<<<<<<<<<<


                                            -------------------------------------------
                                                      TRANSPORT STEP NO.   10
                                            -------------------------------------------

 TOTAL ELAPSED TIME SINCE BEGINNING OF SIMULATION =   1800.000    D   
 .....................................................................

                     CUMULATIVE MASS BUDGETS AT END OF TRANSPORT STEP   10, TIME STEP    1, STRESS PERIOD    1
                     -----------------------------------------------------------------------------------------

                                                             IN                           OUT
                                                      ----------------             ----------------
                               CONSTANT CONCENTRATION:    0.000000                    0.000000    
                                        CONSTANT HEAD:    22.46800                   -12.47789    
                                               STREAM:    0.000000                   -9.990391    
                               MASS STOR (FLOW MODEL):   0.3035283E-03              -0.4109775E-08
                                MASS STORAGE (SOLUTE):    0.000000                    0.000000    
                            ---------------------------------------------------------------------------
                                              [TOTAL]:    22.46830     KG            -22.46828     KG  

                                                          NET (IN - OUT):   0.1525879E-04
                                                   DISCREPANCY (PERCENT):   0.6791254E-04
     2 CALLS TO GCG PACKAGE FOR TRANSPORT TIME STEP    11 IN FLOW TIME STEP     1 STRESS PERIOD     1
      2 TOTAL ITERATIONS
  MAXIMUM CONCENTRATION CHANGES FOR EACH ITERATION:
  MAX. CHANGE LAYER,ROW,COL MAX. CHANGE LAYER,ROW,COL MAX. CHANGE LAYER,ROW,COL MAX. CHANGE LAYER,ROW,COL MAX. CHANGE LAYER,ROW,COL
 ------------------------------------------------------------------------------------------------------------------------------------
    0.000     (  1,  1,  1)   0.000     (  1,  1,  1)


                     STREAM MASS BUDGETS AT END OF TRANSPORT STEP   11, TIME STEP    1, STRESS PERIOD    1 FOR COMPONENT   1
                     -------------------------------------------------------------------------------------------------------

                                         CUMULATIVE MASS [M]                                     MASS FOR THIS TIME STEP [M]
                                         -------------------                                    --------------
                      STREAM DEPLETION =  0.1917821E-04                      STREAM DEPLETION =  0.9568471E-06
                      INFLOW TO STREAM =   91.57499                          INFLOW TO STREAM =   8.325000    
                          GW TO STREAM =   10.98943                              GW TO STREAM =  0.9990391    
                         PRECIPITATION =   0.000000                             PRECIPITATION =   0.000000    
                                RUNOFF =   0.000000                                    RUNOFF =   0.000000    
                CONSTANT CONCENTRATION =   0.000000                    CONSTANT CONCENTRATION =   0.000000    
                             MASS GAIN =   0.000000                                 MASS GAIN =   0.000000    
                                         -------------------                                    --------------
                              TOTAL IN =   102.5644                                  TOTAL IN =   9.324039    

                   STREAM ACCUMULATION =  0.1435280E-03                   STREAM ACCUMULATION =  0.1176827E-04
                        STREAM OUTFLOW =   102.5643                            STREAM OUTFLOW =   9.324030    
                          STREAM TO GW =   0.000000                              STREAM TO GW =   0.000000    
                CONSTANT CONCENTRATION =   0.000000                    CONSTANT CONCENTRATION =   0.000000    
                           EVAPORATION =   0.000000                               EVAPORATION =   0.000000    
                             MASS LOSS =   0.000000                                 MASS LOSS =   0.000000    
                                         -------------------                                    --------------
                             TOTAL OUT =   102.5645                                 TOTAL OUT =   9.324041    

                        NET (IN - OUT) = -0.2288818E-04                        NET (IN - OUT) = -0.1907349E-05
                 DISCREPANCY (PERCENT) = -0.2231590E-04                 DISCREPANCY (PERCENT) = -0.2045625E-04
                                              FLOW ERR (QIN-QOUT-DV) = -0.9536743E-06 [L3/T]




 >>>>>>>>>>>>>>>>>>>>>>>>>>>>>>>>>>>>>>>>>>>>>>>>>>>>>>>FOR COMPONENT NO. 01<<<<<<<<<<<<<<<<<<<<<<<<<<<<<<<<<<<<<<<<<<<<<<<<<<<<<<<


                                            -------------------------------------------
                                                      TRANSPORT STEP NO.   11
                                            -------------------------------------------

 TOTAL ELAPSED TIME SINCE BEGINNING OF SIMULATION =   1980.000    D   
 .....................................................................

                     CUMULATIVE MASS BUDGETS AT END OF TRANSPORT STEP   11, TIME STEP    1, STRESS PERIOD    1
                     -----------------------------------------------------------------------------------------

                                                             IN                           OUT
                                                      ----------------             ----------------
                               CONSTANT CONCENTRATION:    0.000000                    0.000000    
                                        CONSTANT HEAD:    24.71480                   -13.72568    
                                               STREAM:    0.000000                   -10.98943    
                               MASS STOR (FLOW MODEL):   0.3338812E-03              -0.4520753E-08
                                MASS STORAGE (SOLUTE):    0.000000                    0.000000    
                            ---------------------------------------------------------------------------
                                              [TOTAL]:    24.71513     KG            -24.71511     KG  

                                                          NET (IN - OUT):   0.1525879E-04
                                                   DISCREPANCY (PERCENT):   0.6173868E-04
     2 CALLS TO GCG PACKAGE FOR TRANSPORT TIME STEP    12 IN FLOW TIME STEP     1 STRESS PERIOD     1
      2 TOTAL ITERATIONS
  MAXIMUM CONCENTRATION CHANGES FOR EACH ITERATION:
  MAX. CHANGE LAYER,ROW,COL MAX. CHANGE LAYER,ROW,COL MAX. CHANGE LAYER,ROW,COL MAX. CHANGE LAYER,ROW,COL MAX. CHANGE LAYER,ROW,COL
 ------------------------------------------------------------------------------------------------------------------------------------
    0.000     (  1,  1,  1)   0.000     (  1,  1,  1)


                     STREAM MASS BUDGETS AT END OF TRANSPORT STEP   12, TIME STEP    1, STRESS PERIOD    1 FOR COMPONENT   1
                     -------------------------------------------------------------------------------------------------------

                                         CUMULATIVE MASS [M]                                     MASS FOR THIS TIME STEP [M]
                                         -------------------                                    --------------
                      STREAM DEPLETION =  0.2009120E-04                      STREAM DEPLETION =  0.9129879E-06
                      INFLOW TO STREAM =   99.89999                          INFLOW TO STREAM =   8.325000    
                          GW TO STREAM =   11.98847                              GW TO STREAM =  0.9990391    
                         PRECIPITATION =   0.000000                             PRECIPITATION =   0.000000    
                                RUNOFF =   0.000000                                    RUNOFF =   0.000000    
                CONSTANT CONCENTRATION =   0.000000                    CONSTANT CONCENTRATION =   0.000000    
                             MASS GAIN =   0.000000                                 MASS GAIN =   0.000000    
                                         -------------------                                    --------------
                              TOTAL IN =   111.8885                                  TOTAL IN =   9.324039    

                   STREAM ACCUMULATION =  0.1552239E-03                   STREAM ACCUMULATION =  0.1169582E-04
                        STREAM OUTFLOW =   111.8883                            STREAM OUTFLOW =   9.324030    
                          STREAM TO GW =   0.000000                              STREAM TO GW =   0.000000    
                CONSTANT CONCENTRATION =   0.000000                    CONSTANT CONCENTRATION =   0.000000    
                           EVAPORATION =   0.000000                               EVAPORATION =   0.000000    
                             MASS LOSS =   0.000000                                 MASS LOSS =   0.000000    
                                         -------------------                                    --------------
                             TOTAL OUT =   111.8885                                 TOTAL OUT =   9.324041    

                        NET (IN - OUT) = -0.2288818E-04                        NET (IN - OUT) = -0.1907349E-05
                 DISCREPANCY (PERCENT) = -0.2045625E-04                 DISCREPANCY (PERCENT) = -0.2045625E-04
                                              FLOW ERR (QIN-QOUT-DV) = -0.9536743E-06 [L3/T]




 >>>>>>>>>>>>>>>>>>>>>>>>>>>>>>>>>>>>>>>>>>>>>>>>>>>>>>>FOR COMPONENT NO. 01<<<<<<<<<<<<<<<<<<<<<<<<<<<<<<<<<<<<<<<<<<<<<<<<<<<<<<<


                                            -------------------------------------------
                                                      TRANSPORT STEP NO.   12
                                            -------------------------------------------

 TOTAL ELAPSED TIME SINCE BEGINNING OF SIMULATION =   2160.000    D   
 .....................................................................

                     CUMULATIVE MASS BUDGETS AT END OF TRANSPORT STEP   12, TIME STEP    1, STRESS PERIOD    1
                     -----------------------------------------------------------------------------------------

                                                             IN                           OUT
                                                      ----------------             ----------------
                               CONSTANT CONCENTRATION:    0.000000                    0.000000    
                                        CONSTANT HEAD:    26.96160                   -14.97347    
                                               STREAM:    0.000000                   -11.98847    
                               MASS STOR (FLOW MODEL):   0.3642340E-03              -0.4931730E-08
                                MASS STORAGE (SOLUTE):    0.000000                    0.000000    
                            ---------------------------------------------------------------------------
                                              [TOTAL]:    26.96196     KG            -26.96194     KG  

                                                          NET (IN - OUT):   0.1907349E-04
                                                   DISCREPANCY (PERCENT):   0.7074224E-04
     2 CALLS TO GCG PACKAGE FOR TRANSPORT TIME STEP    13 IN FLOW TIME STEP     1 STRESS PERIOD     1
      2 TOTAL ITERATIONS
  MAXIMUM CONCENTRATION CHANGES FOR EACH ITERATION:
  MAX. CHANGE LAYER,ROW,COL MAX. CHANGE LAYER,ROW,COL MAX. CHANGE LAYER,ROW,COL MAX. CHANGE LAYER,ROW,COL MAX. CHANGE LAYER,ROW,COL
 ------------------------------------------------------------------------------------------------------------------------------------
    0.000     (  1,  1,  1)   0.000     (  1,  1,  1)


                     STREAM MASS BUDGETS AT END OF TRANSPORT STEP   13, TIME STEP    1, STRESS PERIOD    1 FOR COMPONENT   1
                     -------------------------------------------------------------------------------------------------------

                                         CUMULATIVE MASS [M]                                     MASS FOR THIS TIME STEP [M]
                                         -------------------                                    --------------
                      STREAM DEPLETION =  0.2094274E-04                      STREAM DEPLETION =  0.8515379E-06
                      INFLOW TO STREAM =   108.2250                          INFLOW TO STREAM =   8.325000    
                          GW TO STREAM =   12.98751                              GW TO STREAM =  0.9990391    
                         PRECIPITATION =   0.000000                             PRECIPITATION =   0.000000    
                                RUNOFF =   0.000000                                    RUNOFF =   0.000000    
                CONSTANT CONCENTRATION =   0.000000                    CONSTANT CONCENTRATION =   0.000000    
                             MASS GAIN =   0.000000                                 MASS GAIN =   0.000000    
                                         -------------------                                    --------------
                              TOTAL IN =   121.2125                                  TOTAL IN =   9.324039    

                   STREAM ACCUMULATION =  0.1668404E-03                   STREAM ACCUMULATION =  0.1161651E-04
                        STREAM OUTFLOW =   121.2124                            STREAM OUTFLOW =   9.324030    
                          STREAM TO GW =   0.000000                              STREAM TO GW =   0.000000    
                CONSTANT CONCENTRATION =   0.000000                    CONSTANT CONCENTRATION =   0.000000    
                           EVAPORATION =   0.000000                               EVAPORATION =   0.000000    
                             MASS LOSS =   0.000000                                 MASS LOSS =   0.000000    
                                         -------------------                                    --------------
                             TOTAL OUT =   121.2125                                 TOTAL OUT =   9.324041    

                        NET (IN - OUT) = -0.3051758E-04                        NET (IN - OUT) = -0.1907349E-05
                 DISCREPANCY (PERCENT) = -0.2517692E-04                 DISCREPANCY (PERCENT) = -0.2045625E-04
                                              FLOW ERR (QIN-QOUT-DV) = -0.9536743E-06 [L3/T]




 >>>>>>>>>>>>>>>>>>>>>>>>>>>>>>>>>>>>>>>>>>>>>>>>>>>>>>>FOR COMPONENT NO. 01<<<<<<<<<<<<<<<<<<<<<<<<<<<<<<<<<<<<<<<<<<<<<<<<<<<<<<<


                                            -------------------------------------------
                                                      TRANSPORT STEP NO.   13
                                            -------------------------------------------

 TOTAL ELAPSED TIME SINCE BEGINNING OF SIMULATION =   2340.000    D   
 .....................................................................

                     CUMULATIVE MASS BUDGETS AT END OF TRANSPORT STEP   13, TIME STEP    1, STRESS PERIOD    1
                     -----------------------------------------------------------------------------------------

                                                             IN                           OUT
                                                      ----------------             ----------------
                               CONSTANT CONCENTRATION:    0.000000                    0.000000    
                                        CONSTANT HEAD:    29.20840                   -16.22126    
                                               STREAM:    0.000000                   -12.98751    
                               MASS STOR (FLOW MODEL):   0.3945868E-03              -0.5342708E-08
                                MASS STORAGE (SOLUTE):    0.000000                    0.000000    
                            ---------------------------------------------------------------------------
                                              [TOTAL]:    29.20879     KG            -29.20877     KG  

                                                          NET (IN - OUT):   0.1907349E-04
                                                   DISCREPANCY (PERCENT):   0.6530053E-04
     2 CALLS TO GCG PACKAGE FOR TRANSPORT TIME STEP    14 IN FLOW TIME STEP     1 STRESS PERIOD     1
      2 TOTAL ITERATIONS
  MAXIMUM CONCENTRATION CHANGES FOR EACH ITERATION:
  MAX. CHANGE LAYER,ROW,COL MAX. CHANGE LAYER,ROW,COL MAX. CHANGE LAYER,ROW,COL MAX. CHANGE LAYER,ROW,COL MAX. CHANGE LAYER,ROW,COL
 ------------------------------------------------------------------------------------------------------------------------------------
    0.000     (  1,  1,  1)   0.000     (  1,  1,  1)


                     STREAM MASS BUDGETS AT END OF TRANSPORT STEP   14, TIME STEP    1, STRESS PERIOD    1 FOR COMPONENT   1
                     -------------------------------------------------------------------------------------------------------

                                         CUMULATIVE MASS [M]                                     MASS FOR THIS TIME STEP [M]
                                         -------------------                                    --------------
                      STREAM DEPLETION =  0.2175997E-04                      STREAM DEPLETION =  0.8172348E-06
                      INFLOW TO STREAM =   116.5500                          INFLOW TO STREAM =   8.325000    
                          GW TO STREAM =   13.98655                              GW TO STREAM =  0.9990391    
                         PRECIPITATION =   0.000000                             PRECIPITATION =   0.000000    
                                RUNOFF =   0.000000                                    RUNOFF =   0.000000    
                CONSTANT CONCENTRATION =   0.000000                    CONSTANT CONCENTRATION =   0.000000    
                             MASS GAIN =   0.000000                                 MASS GAIN =   0.000000    
                                         -------------------                                    --------------
                              TOTAL IN =   130.5365                                  TOTAL IN =   9.324039    

                   STREAM ACCUMULATION =  0.1784097E-03                   STREAM ACCUMULATION =  0.1156928E-04
                        STREAM OUTFLOW =   130.5364                            STREAM OUTFLOW =   9.324030    
                          STREAM TO GW =   0.000000                              STREAM TO GW =   0.000000    
                CONSTANT CONCENTRATION =   0.000000                    CONSTANT CONCENTRATION =   0.000000    
                           EVAPORATION =   0.000000                               EVAPORATION =   0.000000    
                             MASS LOSS =   0.000000                                 MASS LOSS =   0.000000    
                                         -------------------                                    --------------
                             TOTAL OUT =   130.5366                                 TOTAL OUT =   9.324041    

                        NET (IN - OUT) = -0.4577637E-04                        NET (IN - OUT) = -0.1907349E-05
                 DISCREPANCY (PERCENT) = -0.3506785E-04                 DISCREPANCY (PERCENT) = -0.2045625E-04
                                              FLOW ERR (QIN-QOUT-DV) = -0.9536743E-06 [L3/T]




 >>>>>>>>>>>>>>>>>>>>>>>>>>>>>>>>>>>>>>>>>>>>>>>>>>>>>>>FOR COMPONENT NO. 01<<<<<<<<<<<<<<<<<<<<<<<<<<<<<<<<<<<<<<<<<<<<<<<<<<<<<<<


                                            -------------------------------------------
                                                      TRANSPORT STEP NO.   14
                                            -------------------------------------------

 TOTAL ELAPSED TIME SINCE BEGINNING OF SIMULATION =   2520.000    D   
 .....................................................................

                     CUMULATIVE MASS BUDGETS AT END OF TRANSPORT STEP   14, TIME STEP    1, STRESS PERIOD    1
                     -----------------------------------------------------------------------------------------

                                                             IN                           OUT
                                                      ----------------             ----------------
                               CONSTANT CONCENTRATION:    0.000000                    0.000000    
                                        CONSTANT HEAD:    31.45519                   -17.46905    
                                               STREAM:    0.000000                   -13.98655    
                               MASS STOR (FLOW MODEL):   0.4249396E-03              -0.5753685E-08
                                MASS STORAGE (SOLUTE):    0.000000                    0.000000    
                            ---------------------------------------------------------------------------
                                              [TOTAL]:    31.45562     KG            -31.45560     KG  

                                                          NET (IN - OUT):   0.2098083E-04
                                                   DISCREPANCY (PERCENT):   0.6669982E-04
     2 CALLS TO GCG PACKAGE FOR TRANSPORT TIME STEP    15 IN FLOW TIME STEP     1 STRESS PERIOD     1
      2 TOTAL ITERATIONS
  MAXIMUM CONCENTRATION CHANGES FOR EACH ITERATION:
  MAX. CHANGE LAYER,ROW,COL MAX. CHANGE LAYER,ROW,COL MAX. CHANGE LAYER,ROW,COL MAX. CHANGE LAYER,ROW,COL MAX. CHANGE LAYER,ROW,COL
 ------------------------------------------------------------------------------------------------------------------------------------
    0.000     (  1,  1,  1)   0.000     (  1,  1,  1)


                     STREAM MASS BUDGETS AT END OF TRANSPORT STEP   15, TIME STEP    1, STRESS PERIOD    1 FOR COMPONENT   1
                     -------------------------------------------------------------------------------------------------------

                                         CUMULATIVE MASS [M]                                     MASS FOR THIS TIME STEP [M]
                                         -------------------                                    --------------
                      STREAM DEPLETION =  0.2253139E-04                      STREAM DEPLETION =  0.7714194E-06
                      INFLOW TO STREAM =   124.8750                          INFLOW TO STREAM =   8.325000    
                          GW TO STREAM =   14.98558                              GW TO STREAM =  0.9990391    
                         PRECIPITATION =   0.000000                             PRECIPITATION =   0.000000    
                                RUNOFF =   0.000000                                    RUNOFF =   0.000000    
                CONSTANT CONCENTRATION =   0.000000                    CONSTANT CONCENTRATION =   0.000000    
                             MASS GAIN =   0.000000                                 MASS GAIN =   0.000000    
                                         -------------------                                    --------------
                              TOTAL IN =   139.8606                                  TOTAL IN =   9.324039    

                   STREAM ACCUMULATION =  0.1899276E-03                   STREAM ACCUMULATION =  0.1151797E-04
                        STREAM OUTFLOW =   139.8604                            STREAM OUTFLOW =   9.324030    
                          STREAM TO GW =   0.000000                              STREAM TO GW =   0.000000    
                CONSTANT CONCENTRATION =   0.000000                    CONSTANT CONCENTRATION =   0.000000    
                           EVAPORATION =   0.000000                               EVAPORATION =   0.000000    
                             MASS LOSS =   0.000000                                 MASS LOSS =   0.000000    
                                         -------------------                                    --------------
                             TOTAL OUT =   139.8606                                 TOTAL OUT =   9.324041    

                        NET (IN - OUT) = -0.4577637E-04                        NET (IN - OUT) = -0.1907349E-05
                 DISCREPANCY (PERCENT) = -0.3273000E-04                 DISCREPANCY (PERCENT) = -0.2045625E-04
                                              FLOW ERR (QIN-QOUT-DV) = -0.9536743E-06 [L3/T]




 >>>>>>>>>>>>>>>>>>>>>>>>>>>>>>>>>>>>>>>>>>>>>>>>>>>>>>>FOR COMPONENT NO. 01<<<<<<<<<<<<<<<<<<<<<<<<<<<<<<<<<<<<<<<<<<<<<<<<<<<<<<<


                                            -------------------------------------------
                                                      TRANSPORT STEP NO.   15
                                            -------------------------------------------

 TOTAL ELAPSED TIME SINCE BEGINNING OF SIMULATION =   2700.000    D   
 .....................................................................

                     CUMULATIVE MASS BUDGETS AT END OF TRANSPORT STEP   15, TIME STEP    1, STRESS PERIOD    1
                     -----------------------------------------------------------------------------------------

                                                             IN                           OUT
                                                      ----------------             ----------------
                               CONSTANT CONCENTRATION:    0.000000                    0.000000    
                                        CONSTANT HEAD:    33.70200                   -18.71684    
                                               STREAM:    0.000000                   -14.98558    
                               MASS STOR (FLOW MODEL):   0.4552924E-03              -0.6164663E-08
                                MASS STORAGE (SOLUTE):    0.000000                    0.000000    
                            ---------------------------------------------------------------------------
                                              [TOTAL]:    33.70245     KG            -33.70243     KG  

                                                          NET (IN - OUT):   0.2288818E-04
                                                   DISCREPANCY (PERCENT):   0.6791254E-04
     2 CALLS TO GCG PACKAGE FOR TRANSPORT TIME STEP    16 IN FLOW TIME STEP     1 STRESS PERIOD     1
      2 TOTAL ITERATIONS
  MAXIMUM CONCENTRATION CHANGES FOR EACH ITERATION:
  MAX. CHANGE LAYER,ROW,COL MAX. CHANGE LAYER,ROW,COL MAX. CHANGE LAYER,ROW,COL MAX. CHANGE LAYER,ROW,COL MAX. CHANGE LAYER,ROW,COL
 ------------------------------------------------------------------------------------------------------------------------------------
    0.000     (  1,  1,  1)   0.000     (  1,  1,  1)


                     STREAM MASS BUDGETS AT END OF TRANSPORT STEP   16, TIME STEP    1, STRESS PERIOD    1 FOR COMPONENT   1
                     -------------------------------------------------------------------------------------------------------

                                         CUMULATIVE MASS [M]                                     MASS FOR THIS TIME STEP [M]
                                         -------------------                                    --------------
                      STREAM DEPLETION =  0.2328055E-04                      STREAM DEPLETION =  0.7491565E-06
                      INFLOW TO STREAM =   133.2000                          INFLOW TO STREAM =   8.325000    
                          GW TO STREAM =   15.98462                              GW TO STREAM =  0.9990391    
                         PRECIPITATION =   0.000000                             PRECIPITATION =   0.000000    
                                RUNOFF =   0.000000                                    RUNOFF =   0.000000    
                CONSTANT CONCENTRATION =   0.000000                    CONSTANT CONCENTRATION =   0.000000    
                             MASS GAIN =   0.000000                                 MASS GAIN =   0.000000    
                                         -------------------                                    --------------
                              TOTAL IN =   149.1846                                  TOTAL IN =   9.324039    

                   STREAM ACCUMULATION =  0.2014207E-03                   STREAM ACCUMULATION =  0.1149312E-04
                        STREAM OUTFLOW =   149.1845                            STREAM OUTFLOW =   9.324030    
                          STREAM TO GW =   0.000000                              STREAM TO GW =   0.000000    
                CONSTANT CONCENTRATION =   0.000000                    CONSTANT CONCENTRATION =   0.000000    
                           EVAPORATION =   0.000000                               EVAPORATION =   0.000000    
                             MASS LOSS =   0.000000                                 MASS LOSS =   0.000000    
                                         -------------------                                    --------------
                             TOTAL OUT =   149.1847                                 TOTAL OUT =   9.324041    

                        NET (IN - OUT) = -0.4577637E-04                        NET (IN - OUT) = -0.1907349E-05
                 DISCREPANCY (PERCENT) = -0.3068436E-04                 DISCREPANCY (PERCENT) = -0.2045625E-04
                                              FLOW ERR (QIN-QOUT-DV) = -0.9536743E-06 [L3/T]




 >>>>>>>>>>>>>>>>>>>>>>>>>>>>>>>>>>>>>>>>>>>>>>>>>>>>>>>FOR COMPONENT NO. 01<<<<<<<<<<<<<<<<<<<<<<<<<<<<<<<<<<<<<<<<<<<<<<<<<<<<<<<


                                            -------------------------------------------
                                                      TRANSPORT STEP NO.   16
                                            -------------------------------------------

 TOTAL ELAPSED TIME SINCE BEGINNING OF SIMULATION =   2880.000    D   
 .....................................................................

                     CUMULATIVE MASS BUDGETS AT END OF TRANSPORT STEP   16, TIME STEP    1, STRESS PERIOD    1
                     -----------------------------------------------------------------------------------------

                                                             IN                           OUT
                                                      ----------------             ----------------
                               CONSTANT CONCENTRATION:    0.000000                    0.000000    
                                        CONSTANT HEAD:    35.94880                   -19.96463    
                                               STREAM:    0.000000                   -15.98462    
                               MASS STOR (FLOW MODEL):   0.4856453E-03              -0.6575640E-08
                                MASS STORAGE (SOLUTE):    0.000000                    0.000000    
                            ---------------------------------------------------------------------------
                                              [TOTAL]:    35.94928     KG            -35.94926     KG  

                                                          NET (IN - OUT):   0.2288818E-04
                                                   DISCREPANCY (PERCENT):   0.6366801E-04
     2 CALLS TO GCG PACKAGE FOR TRANSPORT TIME STEP    17 IN FLOW TIME STEP     1 STRESS PERIOD     1
      2 TOTAL ITERATIONS
  MAXIMUM CONCENTRATION CHANGES FOR EACH ITERATION:
  MAX. CHANGE LAYER,ROW,COL MAX. CHANGE LAYER,ROW,COL MAX. CHANGE LAYER,ROW,COL MAX. CHANGE LAYER,ROW,COL MAX. CHANGE LAYER,ROW,COL
 ------------------------------------------------------------------------------------------------------------------------------------
    0.000     (  1,  1,  1)   0.000     (  1,  1,  1)


                     STREAM MASS BUDGETS AT END OF TRANSPORT STEP   17, TIME STEP    1, STRESS PERIOD    1 FOR COMPONENT   1
                     -------------------------------------------------------------------------------------------------------

                                         CUMULATIVE MASS [M]                                     MASS FOR THIS TIME STEP [M]
                                         -------------------                                    --------------
                      STREAM DEPLETION =  0.2400185E-04                      STREAM DEPLETION =  0.7213029E-06
                      INFLOW TO STREAM =   141.5250                          INFLOW TO STREAM =   8.325000    
                          GW TO STREAM =   16.98366                              GW TO STREAM =  0.9990391    
                         PRECIPITATION =   0.000000                             PRECIPITATION =   0.000000    
                                RUNOFF =   0.000000                                    RUNOFF =   0.000000    
                CONSTANT CONCENTRATION =   0.000000                    CONSTANT CONCENTRATION =   0.000000    
                             MASS GAIN =   0.000000                                 MASS GAIN =   0.000000    
                                         -------------------                                    --------------
                              TOTAL IN =   158.5087                                  TOTAL IN =   9.324039    

                   STREAM ACCUMULATION =  0.2128885E-03                   STREAM ACCUMULATION =  0.1146772E-04
                        STREAM OUTFLOW =   158.5085                            STREAM OUTFLOW =   9.324030    
                          STREAM TO GW =   0.000000                              STREAM TO GW =   0.000000    
                CONSTANT CONCENTRATION =   0.000000                    CONSTANT CONCENTRATION =   0.000000    
                           EVAPORATION =   0.000000                               EVAPORATION =   0.000000    
                             MASS LOSS =   0.000000                                 MASS LOSS =   0.000000    
                                         -------------------                                    --------------
                             TOTAL OUT =   158.5087                                 TOTAL OUT =   9.324041    

                        NET (IN - OUT) = -0.6103516E-04                        NET (IN - OUT) = -0.1907349E-05
                 DISCREPANCY (PERCENT) = -0.3850587E-04                 DISCREPANCY (PERCENT) = -0.2045625E-04
                                              FLOW ERR (QIN-QOUT-DV) = -0.9536743E-06 [L3/T]




 >>>>>>>>>>>>>>>>>>>>>>>>>>>>>>>>>>>>>>>>>>>>>>>>>>>>>>>FOR COMPONENT NO. 01<<<<<<<<<<<<<<<<<<<<<<<<<<<<<<<<<<<<<<<<<<<<<<<<<<<<<<<


                                            -------------------------------------------
                                                      TRANSPORT STEP NO.   17
                                            -------------------------------------------

 TOTAL ELAPSED TIME SINCE BEGINNING OF SIMULATION =   3060.000    D   
 .....................................................................

                     CUMULATIVE MASS BUDGETS AT END OF TRANSPORT STEP   17, TIME STEP    1, STRESS PERIOD    1
                     -----------------------------------------------------------------------------------------

                                                             IN                           OUT
                                                      ----------------             ----------------
                               CONSTANT CONCENTRATION:    0.000000                    0.000000    
                                        CONSTANT HEAD:    38.19559                   -21.21242    
                                               STREAM:    0.000000                   -16.98366    
                               MASS STOR (FLOW MODEL):   0.5159981E-03              -0.6986618E-08
                                MASS STORAGE (SOLUTE):    0.000000                    0.000000    
                            ---------------------------------------------------------------------------
                                              [TOTAL]:    38.19611     KG            -38.19608     KG  

                                                          NET (IN - OUT):   0.2670288E-04
                                                   DISCREPANCY (PERCENT):   0.6990997E-04
     2 CALLS TO GCG PACKAGE FOR TRANSPORT TIME STEP    18 IN FLOW TIME STEP     1 STRESS PERIOD     1
      2 TOTAL ITERATIONS
  MAXIMUM CONCENTRATION CHANGES FOR EACH ITERATION:
  MAX. CHANGE LAYER,ROW,COL MAX. CHANGE LAYER,ROW,COL MAX. CHANGE LAYER,ROW,COL MAX. CHANGE LAYER,ROW,COL MAX. CHANGE LAYER,ROW,COL
 ------------------------------------------------------------------------------------------------------------------------------------
    0.000     (  1,  1,  1)   0.000     (  1,  1,  1)


                     STREAM MASS BUDGETS AT END OF TRANSPORT STEP   18, TIME STEP    1, STRESS PERIOD    1 FOR COMPONENT   1
                     -------------------------------------------------------------------------------------------------------

                                         CUMULATIVE MASS [M]                                     MASS FOR THIS TIME STEP [M]
                                         -------------------                                    --------------
                      STREAM DEPLETION =  0.2471064E-04                      STREAM DEPLETION =  0.7087918E-06
                      INFLOW TO STREAM =   149.8500                          INFLOW TO STREAM =   8.325000    
                          GW TO STREAM =   17.98270                              GW TO STREAM =  0.9990391    
                         PRECIPITATION =   0.000000                             PRECIPITATION =   0.000000    
                                RUNOFF =   0.000000                                    RUNOFF =   0.000000    
                CONSTANT CONCENTRATION =   0.000000                    CONSTANT CONCENTRATION =   0.000000    
                             MASS GAIN =   0.000000                                 MASS GAIN =   0.000000    
                                         -------------------                                    --------------
                              TOTAL IN =   167.8327                                  TOTAL IN =   9.324039    

                   STREAM ACCUMULATION =  0.2243475E-03                   STREAM ACCUMULATION =  0.1145905E-04
                        STREAM OUTFLOW =   167.8326                            STREAM OUTFLOW =   9.324030    
                          STREAM TO GW =   0.000000                              STREAM TO GW =   0.000000    
                CONSTANT CONCENTRATION =   0.000000                    CONSTANT CONCENTRATION =   0.000000    
                           EVAPORATION =   0.000000                               EVAPORATION =   0.000000    
                             MASS LOSS =   0.000000                                 MASS LOSS =   0.000000    
                                         -------------------                                    --------------
                             TOTAL OUT =   167.8328                                 TOTAL OUT =   9.324041    

                        NET (IN - OUT) = -0.7629395E-04                        NET (IN - OUT) = -0.1907349E-05
                 DISCREPANCY (PERCENT) = -0.4545832E-04                 DISCREPANCY (PERCENT) = -0.2045625E-04
                                              FLOW ERR (QIN-QOUT-DV) = -0.9536743E-06 [L3/T]




 >>>>>>>>>>>>>>>>>>>>>>>>>>>>>>>>>>>>>>>>>>>>>>>>>>>>>>>FOR COMPONENT NO. 01<<<<<<<<<<<<<<<<<<<<<<<<<<<<<<<<<<<<<<<<<<<<<<<<<<<<<<<


                                            -------------------------------------------
                                                      TRANSPORT STEP NO.   18
                                            -------------------------------------------

 TOTAL ELAPSED TIME SINCE BEGINNING OF SIMULATION =   3240.000    D   
 .....................................................................

                     CUMULATIVE MASS BUDGETS AT END OF TRANSPORT STEP   18, TIME STEP    1, STRESS PERIOD    1
                     -----------------------------------------------------------------------------------------

                                                             IN                           OUT
                                                      ----------------             ----------------
                               CONSTANT CONCENTRATION:    0.000000                    0.000000    
                                        CONSTANT HEAD:    40.44239                   -22.46021    
                                               STREAM:    0.000000                   -17.98270    
                               MASS STOR (FLOW MODEL):   0.5463510E-03              -0.7397595E-08
                                MASS STORAGE (SOLUTE):    0.000000                    0.000000    
                            ---------------------------------------------------------------------------
                                              [TOTAL]:    40.44294     KG            -40.44291     KG  

                                                          NET (IN - OUT):   0.3051758E-04
                                                   DISCREPANCY (PERCENT):   0.7545839E-04
     2 CALLS TO GCG PACKAGE FOR TRANSPORT TIME STEP    19 IN FLOW TIME STEP     1 STRESS PERIOD     1
      2 TOTAL ITERATIONS
  MAXIMUM CONCENTRATION CHANGES FOR EACH ITERATION:
  MAX. CHANGE LAYER,ROW,COL MAX. CHANGE LAYER,ROW,COL MAX. CHANGE LAYER,ROW,COL MAX. CHANGE LAYER,ROW,COL MAX. CHANGE LAYER,ROW,COL
 ------------------------------------------------------------------------------------------------------------------------------------
    0.000     (  1,  1,  1)   0.000     (  1,  1,  1)


                     STREAM MASS BUDGETS AT END OF TRANSPORT STEP   19, TIME STEP    1, STRESS PERIOD    1 FOR COMPONENT   1
                     -------------------------------------------------------------------------------------------------------

                                         CUMULATIVE MASS [M]                                     MASS FOR THIS TIME STEP [M]
                                         -------------------                                    --------------
                      STREAM DEPLETION =  0.2539211E-04                      STREAM DEPLETION =  0.6814678E-06
                      INFLOW TO STREAM =   158.1750                          INFLOW TO STREAM =   8.325000    
                          GW TO STREAM =   18.98174                              GW TO STREAM =  0.9990391    
                         PRECIPITATION =   0.000000                             PRECIPITATION =   0.000000    
                                RUNOFF =   0.000000                                    RUNOFF =   0.000000    
                CONSTANT CONCENTRATION =   0.000000                    CONSTANT CONCENTRATION =   0.000000    
                             MASS GAIN =   0.000000                                 MASS GAIN =   0.000000    
                                         -------------------                                    --------------
                              TOTAL IN =   177.1567                                  TOTAL IN =   9.324039    

                   STREAM ACCUMULATION =  0.2357863E-03                   STREAM ACCUMULATION =  0.1143881E-04
                        STREAM OUTFLOW =   177.1566                            STREAM OUTFLOW =   9.324030    
                          STREAM TO GW =   0.000000                              STREAM TO GW =   0.000000    
                CONSTANT CONCENTRATION =   0.000000                    CONSTANT CONCENTRATION =   0.000000    
                           EVAPORATION =   0.000000                               EVAPORATION =   0.000000    
                             MASS LOSS =   0.000000                                 MASS LOSS =   0.000000    
                                         -------------------                                    --------------
                             TOTAL OUT =   177.1568                                 TOTAL OUT =   9.324041    

                        NET (IN - OUT) = -0.7629395E-04                        NET (IN - OUT) = -0.1907349E-05
                 DISCREPANCY (PERCENT) = -0.4306578E-04                 DISCREPANCY (PERCENT) = -0.2045625E-04
                                              FLOW ERR (QIN-QOUT-DV) = -0.9536743E-06 [L3/T]




 >>>>>>>>>>>>>>>>>>>>>>>>>>>>>>>>>>>>>>>>>>>>>>>>>>>>>>>FOR COMPONENT NO. 01<<<<<<<<<<<<<<<<<<<<<<<<<<<<<<<<<<<<<<<<<<<<<<<<<<<<<<<


                                            -------------------------------------------
                                                      TRANSPORT STEP NO.   19
                                            -------------------------------------------

 TOTAL ELAPSED TIME SINCE BEGINNING OF SIMULATION =   3420.000    D   
 .....................................................................

                     CUMULATIVE MASS BUDGETS AT END OF TRANSPORT STEP   19, TIME STEP    1, STRESS PERIOD    1
                     -----------------------------------------------------------------------------------------

                                                             IN                           OUT
                                                      ----------------             ----------------
                               CONSTANT CONCENTRATION:    0.000000                    0.000000    
                                        CONSTANT HEAD:    42.68919                   -23.70800    
                                               STREAM:    0.000000                   -18.98174    
                               MASS STOR (FLOW MODEL):   0.5767038E-03              -0.7808572E-08
                                MASS STORAGE (SOLUTE):    0.000000                    0.000000    
                            ---------------------------------------------------------------------------
                                              [TOTAL]:    42.68977     KG            -42.68974     KG  

                                                          NET (IN - OUT):   0.3051758E-04
                                                   DISCREPANCY (PERCENT):   0.7148689E-04
     2 CALLS TO GCG PACKAGE FOR TRANSPORT TIME STEP    20 IN FLOW TIME STEP     1 STRESS PERIOD     1
      2 TOTAL ITERATIONS
  MAXIMUM CONCENTRATION CHANGES FOR EACH ITERATION:
  MAX. CHANGE LAYER,ROW,COL MAX. CHANGE LAYER,ROW,COL MAX. CHANGE LAYER,ROW,COL MAX. CHANGE LAYER,ROW,COL MAX. CHANGE LAYER,ROW,COL
 ------------------------------------------------------------------------------------------------------------------------------------
    0.000     (  1,  1,  1)   0.000     (  1,  1,  1)


                     STREAM MASS BUDGETS AT END OF TRANSPORT STEP   20, TIME STEP    1, STRESS PERIOD    1 FOR COMPONENT   1
                     -------------------------------------------------------------------------------------------------------

                                         CUMULATIVE MASS [M]                                     MASS FOR THIS TIME STEP [M]
                                         -------------------                                    --------------
                      STREAM DEPLETION =  0.2606218E-04                      STREAM DEPLETION =  0.6700754E-06
                      INFLOW TO STREAM =   166.5000                          INFLOW TO STREAM =   8.325000    
                          GW TO STREAM =   19.98078                              GW TO STREAM =  0.9990391    
                         PRECIPITATION =   0.000000                             PRECIPITATION =   0.000000    
                                RUNOFF =   0.000000                                    RUNOFF =   0.000000    
                CONSTANT CONCENTRATION =   0.000000                    CONSTANT CONCENTRATION =   0.000000    
                             MASS GAIN =   0.000000                                 MASS GAIN =   0.000000    
                                         -------------------                                    --------------
                              TOTAL IN =   186.4808                                  TOTAL IN =   9.324039    

                   STREAM ACCUMULATION =  0.2472211E-03                   STREAM ACCUMULATION =  0.1143479E-04
                        STREAM OUTFLOW =   186.4806                            STREAM OUTFLOW =   9.324030    
                          STREAM TO GW =   0.000000                              STREAM TO GW =   0.000000    
                CONSTANT CONCENTRATION =   0.000000                    CONSTANT CONCENTRATION =   0.000000    
                           EVAPORATION =   0.000000                               EVAPORATION =   0.000000    
                             MASS LOSS =   0.000000                                 MASS LOSS =   0.000000    
                                         -------------------                                    --------------
                             TOTAL OUT =   186.4809                                 TOTAL OUT =   9.324041    

                        NET (IN - OUT) = -0.9155273E-04                        NET (IN - OUT) = -0.1907349E-05
                 DISCREPANCY (PERCENT) = -0.4909499E-04                 DISCREPANCY (PERCENT) = -0.2045625E-04
                                              FLOW ERR (QIN-QOUT-DV) = -0.9536743E-06 [L3/T]




 >>>>>>>>>>>>>>>>>>>>>>>>>>>>>>>>>>>>>>>>>>>>>>>>>>>>>>>FOR COMPONENT NO. 01<<<<<<<<<<<<<<<<<<<<<<<<<<<<<<<<<<<<<<<<<<<<<<<<<<<<<<<


                                            -------------------------------------------
                                                      TRANSPORT STEP NO.   20
                                            -------------------------------------------

 TOTAL ELAPSED TIME SINCE BEGINNING OF SIMULATION =   3600.000    D   
 .....................................................................

                     CUMULATIVE MASS BUDGETS AT END OF TRANSPORT STEP   20, TIME STEP    1, STRESS PERIOD    1
                     -----------------------------------------------------------------------------------------

                                                             IN                           OUT
                                                      ----------------             ----------------
                               CONSTANT CONCENTRATION:    0.000000                    0.000000    
                                        CONSTANT HEAD:    44.93599                   -24.95579    
                                               STREAM:    0.000000                   -19.98078    
                               MASS STOR (FLOW MODEL):   0.6070567E-03              -0.8219550E-08
                                MASS STORAGE (SOLUTE):    0.000000                    0.000000    
                            ---------------------------------------------------------------------------
                                              [TOTAL]:    44.93660     KG            -44.93657     KG  

                                                          NET (IN - OUT):   0.3051758E-04
                                                   DISCREPANCY (PERCENT):   0.6791254E-04
     2 CALLS TO GCG PACKAGE FOR TRANSPORT TIME STEP    21 IN FLOW TIME STEP     1 STRESS PERIOD     1
      2 TOTAL ITERATIONS
  MAXIMUM CONCENTRATION CHANGES FOR EACH ITERATION:
  MAX. CHANGE LAYER,ROW,COL MAX. CHANGE LAYER,ROW,COL MAX. CHANGE LAYER,ROW,COL MAX. CHANGE LAYER,ROW,COL MAX. CHANGE LAYER,ROW,COL
 ------------------------------------------------------------------------------------------------------------------------------------
    0.000     (  1,  1,  1)   0.000     (  1,  1,  1)


                     STREAM MASS BUDGETS AT END OF TRANSPORT STEP   21, TIME STEP    1, STRESS PERIOD    1 FOR COMPONENT   1
                     -------------------------------------------------------------------------------------------------------

                                         CUMULATIVE MASS [M]                                     MASS FOR THIS TIME STEP [M]
                                         -------------------                                    --------------
                      STREAM DEPLETION =  0.2670761E-04                      STREAM DEPLETION =  0.6454306E-06
                      INFLOW TO STREAM =   174.8250                          INFLOW TO STREAM =   8.325000    
                          GW TO STREAM =   20.97982                              GW TO STREAM =  0.9990391    
                         PRECIPITATION =   0.000000                             PRECIPITATION =   0.000000    
                                RUNOFF =   0.000000                                    RUNOFF =   0.000000    
                CONSTANT CONCENTRATION =   0.000000                    CONSTANT CONCENTRATION =   0.000000    
                             MASS GAIN =   0.000000                                 MASS GAIN =   0.000000    
                                         -------------------                                    --------------
                              TOTAL IN =   195.8048                                  TOTAL IN =   9.324039    

                   STREAM ACCUMULATION =  0.2586406E-03                   STREAM ACCUMULATION =  0.1141945E-04
                        STREAM OUTFLOW =   195.8047                            STREAM OUTFLOW =   9.324030    
                          STREAM TO GW =   0.000000                              STREAM TO GW =   0.000000    
                CONSTANT CONCENTRATION =   0.000000                    CONSTANT CONCENTRATION =   0.000000    
                           EVAPORATION =   0.000000                               EVAPORATION =   0.000000    
                             MASS LOSS =   0.000000                                 MASS LOSS =   0.000000    
                                         -------------------                                    --------------
                             TOTAL OUT =   195.8049                                 TOTAL OUT =   9.324041    

                        NET (IN - OUT) = -0.1068115E-03                        NET (IN - OUT) = -0.1907349E-05
                 DISCREPANCY (PERCENT) = -0.5454998E-04                 DISCREPANCY (PERCENT) = -0.2045625E-04
                                              FLOW ERR (QIN-QOUT-DV) = -0.9536743E-06 [L3/T]




 >>>>>>>>>>>>>>>>>>>>>>>>>>>>>>>>>>>>>>>>>>>>>>>>>>>>>>>FOR COMPONENT NO. 01<<<<<<<<<<<<<<<<<<<<<<<<<<<<<<<<<<<<<<<<<<<<<<<<<<<<<<<


                                            -------------------------------------------
                                                      TRANSPORT STEP NO.   21
                                            -------------------------------------------

 TOTAL ELAPSED TIME SINCE BEGINNING OF SIMULATION =   3780.000    D   
 .....................................................................

                     CUMULATIVE MASS BUDGETS AT END OF TRANSPORT STEP   21, TIME STEP    1, STRESS PERIOD    1
                     -----------------------------------------------------------------------------------------

                                                             IN                           OUT
                                                      ----------------             ----------------
                               CONSTANT CONCENTRATION:    0.000000                    0.000000    
                                        CONSTANT HEAD:    47.18279                   -26.20358    
                                               STREAM:    0.000000                   -20.97982    
                               MASS STOR (FLOW MODEL):   0.6374095E-03              -0.8630528E-08
                                MASS STORAGE (SOLUTE):    0.000000                    0.000000    
                            ---------------------------------------------------------------------------
                                              [TOTAL]:    47.18343     KG            -47.18340     KG  

                                                          NET (IN - OUT):   0.3433228E-04
                                                   DISCREPANCY (PERCENT):   0.7276345E-04
     2 CALLS TO GCG PACKAGE FOR TRANSPORT TIME STEP    22 IN FLOW TIME STEP     1 STRESS PERIOD     1
      2 TOTAL ITERATIONS
  MAXIMUM CONCENTRATION CHANGES FOR EACH ITERATION:
  MAX. CHANGE LAYER,ROW,COL MAX. CHANGE LAYER,ROW,COL MAX. CHANGE LAYER,ROW,COL MAX. CHANGE LAYER,ROW,COL MAX. CHANGE LAYER,ROW,COL
 ------------------------------------------------------------------------------------------------------------------------------------
    0.000     (  1,  1,  1)   0.000     (  1,  1,  1)


                     STREAM MASS BUDGETS AT END OF TRANSPORT STEP   22, TIME STEP    1, STRESS PERIOD    1 FOR COMPONENT   1
                     -------------------------------------------------------------------------------------------------------

                                         CUMULATIVE MASS [M]                                     MASS FOR THIS TIME STEP [M]
                                         -------------------                                    --------------
                      STREAM DEPLETION =  0.2733867E-04                      STREAM DEPLETION =  0.6310588E-06
                      INFLOW TO STREAM =   183.1500                          INFLOW TO STREAM =   8.325000    
                          GW TO STREAM =   21.97886                              GW TO STREAM =  0.9990391    
                         PRECIPITATION =   0.000000                             PRECIPITATION =   0.000000    
                                RUNOFF =   0.000000                                    RUNOFF =   0.000000    
                CONSTANT CONCENTRATION =   0.000000                    CONSTANT CONCENTRATION =   0.000000    
                             MASS GAIN =   0.000000                                 MASS GAIN =   0.000000    
                                         -------------------                                    --------------
                              TOTAL IN =   205.1288                                  TOTAL IN =   9.324039    

                   STREAM ACCUMULATION =  0.2700545E-03                   STREAM ACCUMULATION =  0.1141398E-04
                        STREAM OUTFLOW =   205.1287                            STREAM OUTFLOW =   9.324030    
                          STREAM TO GW =   0.000000                              STREAM TO GW =   0.000000    
                CONSTANT CONCENTRATION =   0.000000                    CONSTANT CONCENTRATION =   0.000000    
                           EVAPORATION =   0.000000                               EVAPORATION =   0.000000    
                             MASS LOSS =   0.000000                                 MASS LOSS =   0.000000    
                                         -------------------                                    --------------
                             TOTAL OUT =   205.1290                                 TOTAL OUT =   9.324041    

                        NET (IN - OUT) = -0.1220703E-03                        NET (IN - OUT) = -0.1907349E-05
                 DISCREPANCY (PERCENT) = -0.5950908E-04                 DISCREPANCY (PERCENT) = -0.2045625E-04
                                              FLOW ERR (QIN-QOUT-DV) = -0.9536743E-06 [L3/T]




 >>>>>>>>>>>>>>>>>>>>>>>>>>>>>>>>>>>>>>>>>>>>>>>>>>>>>>>FOR COMPONENT NO. 01<<<<<<<<<<<<<<<<<<<<<<<<<<<<<<<<<<<<<<<<<<<<<<<<<<<<<<<


                                            -------------------------------------------
                                                      TRANSPORT STEP NO.   22
                                            -------------------------------------------

 TOTAL ELAPSED TIME SINCE BEGINNING OF SIMULATION =   3960.000    D   
 .....................................................................

                     CUMULATIVE MASS BUDGETS AT END OF TRANSPORT STEP   22, TIME STEP    1, STRESS PERIOD    1
                     -----------------------------------------------------------------------------------------

                                                             IN                           OUT
                                                      ----------------             ----------------
                               CONSTANT CONCENTRATION:    0.000000                    0.000000    
                                        CONSTANT HEAD:    49.42959                   -27.45137    
                                               STREAM:    0.000000                   -21.97886    
                               MASS STOR (FLOW MODEL):   0.6677624E-03              -0.9041506E-08
                                MASS STORAGE (SOLUTE):    0.000000                    0.000000    
                            ---------------------------------------------------------------------------
                                              [TOTAL]:    49.43026     KG            -49.43022     KG  

                                                          NET (IN - OUT):   0.3814697E-04
                                                   DISCREPANCY (PERCENT):   0.7717335E-04
     2 CALLS TO GCG PACKAGE FOR TRANSPORT TIME STEP    23 IN FLOW TIME STEP     1 STRESS PERIOD     1
      2 TOTAL ITERATIONS
  MAXIMUM CONCENTRATION CHANGES FOR EACH ITERATION:
  MAX. CHANGE LAYER,ROW,COL MAX. CHANGE LAYER,ROW,COL MAX. CHANGE LAYER,ROW,COL MAX. CHANGE LAYER,ROW,COL MAX. CHANGE LAYER,ROW,COL
 ------------------------------------------------------------------------------------------------------------------------------------
    0.000     (  1,  1,  1)   0.000     (  1,  1,  1)


                     STREAM MASS BUDGETS AT END OF TRANSPORT STEP   23, TIME STEP    1, STRESS PERIOD    1 FOR COMPONENT   1
                     -------------------------------------------------------------------------------------------------------

                                         CUMULATIVE MASS [M]                                     MASS FOR THIS TIME STEP [M]
                                         -------------------                                    --------------
                      STREAM DEPLETION =  0.2794759E-04                      STREAM DEPLETION =  0.6089206E-06
                      INFLOW TO STREAM =   191.4750                          INFLOW TO STREAM =   8.325000    
                          GW TO STREAM =   22.97789                              GW TO STREAM =  0.9990391    
                         PRECIPITATION =   0.000000                             PRECIPITATION =   0.000000    
                                RUNOFF =   0.000000                                    RUNOFF =   0.000000    
                CONSTANT CONCENTRATION =   0.000000                    CONSTANT CONCENTRATION =   0.000000    
                             MASS GAIN =   0.000000                                 MASS GAIN =   0.000000    
                                         -------------------                                    --------------
                              TOTAL IN =   214.4529                                  TOTAL IN =   9.324039    

                   STREAM ACCUMULATION =  0.2814563E-03                   STREAM ACCUMULATION =  0.1140180E-04
                        STREAM OUTFLOW =   214.4527                            STREAM OUTFLOW =   9.324030    
                          STREAM TO GW =   0.000000                              STREAM TO GW =   0.000000    
                CONSTANT CONCENTRATION =   0.000000                    CONSTANT CONCENTRATION =   0.000000    
                           EVAPORATION =   0.000000                               EVAPORATION =   0.000000    
                             MASS LOSS =   0.000000                                 MASS LOSS =   0.000000    
                                         -------------------                                    --------------
                             TOTAL OUT =   214.4530                                 TOTAL OUT =   9.324041    

                        NET (IN - OUT) = -0.1220703E-03                        NET (IN - OUT) = -0.1907349E-05
                 DISCREPANCY (PERCENT) = -0.5692172E-04                 DISCREPANCY (PERCENT) = -0.2045625E-04
                                              FLOW ERR (QIN-QOUT-DV) = -0.9536743E-06 [L3/T]




 >>>>>>>>>>>>>>>>>>>>>>>>>>>>>>>>>>>>>>>>>>>>>>>>>>>>>>>FOR COMPONENT NO. 01<<<<<<<<<<<<<<<<<<<<<<<<<<<<<<<<<<<<<<<<<<<<<<<<<<<<<<<


                                            -------------------------------------------
                                                      TRANSPORT STEP NO.   23
                                            -------------------------------------------

 TOTAL ELAPSED TIME SINCE BEGINNING OF SIMULATION =   4140.000    D   
 .....................................................................

                     CUMULATIVE MASS BUDGETS AT END OF TRANSPORT STEP   23, TIME STEP    1, STRESS PERIOD    1
                     -----------------------------------------------------------------------------------------

                                                             IN                           OUT
                                                      ----------------             ----------------
                               CONSTANT CONCENTRATION:    0.000000                    0.000000    
                                        CONSTANT HEAD:    51.67639                   -28.69916    
                                               STREAM:    0.000000                   -22.97789    
                               MASS STOR (FLOW MODEL):   0.6981152E-03              -0.9452484E-08
                                MASS STORAGE (SOLUTE):    0.000000                    0.000000    
                            ---------------------------------------------------------------------------
                                              [TOTAL]:    51.67709     KG            -51.67705     KG  

                                                          NET (IN - OUT):   0.3814697E-04
                                                   DISCREPANCY (PERCENT):   0.7381799E-04
     2 CALLS TO GCG PACKAGE FOR TRANSPORT TIME STEP    24 IN FLOW TIME STEP     1 STRESS PERIOD     1
      2 TOTAL ITERATIONS
  MAXIMUM CONCENTRATION CHANGES FOR EACH ITERATION:
  MAX. CHANGE LAYER,ROW,COL MAX. CHANGE LAYER,ROW,COL MAX. CHANGE LAYER,ROW,COL MAX. CHANGE LAYER,ROW,COL MAX. CHANGE LAYER,ROW,COL
 ------------------------------------------------------------------------------------------------------------------------------------
    0.000     (  1,  1,  1)   0.000     (  1,  1,  1)


                     STREAM MASS BUDGETS AT END OF TRANSPORT STEP   24, TIME STEP    1, STRESS PERIOD    1 FOR COMPONENT   1
                     -------------------------------------------------------------------------------------------------------

                                         CUMULATIVE MASS [M]                                     MASS FOR THIS TIME STEP [M]
                                         -------------------                                    --------------
                      STREAM DEPLETION =  0.2854173E-04                      STREAM DEPLETION =  0.5941384E-06
                      INFLOW TO STREAM =   199.8000                          INFLOW TO STREAM =   8.325000    
                          GW TO STREAM =   23.97693                              GW TO STREAM =  0.9990391    
                         PRECIPITATION =   0.000000                             PRECIPITATION =   0.000000    
                                RUNOFF =   0.000000                                    RUNOFF =   0.000000    
                CONSTANT CONCENTRATION =   0.000000                    CONSTANT CONCENTRATION =   0.000000    
                             MASS GAIN =   0.000000                                 MASS GAIN =   0.000000    
                                         -------------------                                    --------------
                              TOTAL IN =   223.7769                                  TOTAL IN =   9.324039    

                   STREAM ACCUMULATION =  0.2928525E-03                   STREAM ACCUMULATION =  0.1139614E-04
                        STREAM OUTFLOW =   223.7768                            STREAM OUTFLOW =   9.324030    
                          STREAM TO GW =   0.000000                              STREAM TO GW =   0.000000    
                CONSTANT CONCENTRATION =   0.000000                    CONSTANT CONCENTRATION =   0.000000    
                           EVAPORATION =   0.000000                               EVAPORATION =   0.000000    
                             MASS LOSS =   0.000000                                 MASS LOSS =   0.000000    
                                         -------------------                                    --------------
                             TOTAL OUT =   223.7771                                 TOTAL OUT =   9.324041    

                        NET (IN - OUT) = -0.1373291E-03                        NET (IN - OUT) = -0.1907349E-05
                 DISCREPANCY (PERCENT) = -0.6136874E-04                 DISCREPANCY (PERCENT) = -0.2045625E-04
                                              FLOW ERR (QIN-QOUT-DV) = -0.9536743E-06 [L3/T]




 >>>>>>>>>>>>>>>>>>>>>>>>>>>>>>>>>>>>>>>>>>>>>>>>>>>>>>>FOR COMPONENT NO. 01<<<<<<<<<<<<<<<<<<<<<<<<<<<<<<<<<<<<<<<<<<<<<<<<<<<<<<<


                                            -------------------------------------------
                                                      TRANSPORT STEP NO.   24
                                            -------------------------------------------

 TOTAL ELAPSED TIME SINCE BEGINNING OF SIMULATION =   4320.000    D   
 .....................................................................

                     CUMULATIVE MASS BUDGETS AT END OF TRANSPORT STEP   24, TIME STEP    1, STRESS PERIOD    1
                     -----------------------------------------------------------------------------------------

                                                             IN                           OUT
                                                      ----------------             ----------------
                               CONSTANT CONCENTRATION:    0.000000                    0.000000    
                                        CONSTANT HEAD:    53.92319                   -29.94695    
                                               STREAM:    0.000000                   -23.97693    
                               MASS STOR (FLOW MODEL):   0.7284681E-03              -0.9863462E-08
                                MASS STORAGE (SOLUTE):    0.000000                    0.000000    
                            ---------------------------------------------------------------------------
                                              [TOTAL]:    53.92392     KG            -53.92388     KG  

                                                          NET (IN - OUT):   0.3814697E-04
                                                   DISCREPANCY (PERCENT):   0.7074224E-04
     2 CALLS TO GCG PACKAGE FOR TRANSPORT TIME STEP    25 IN FLOW TIME STEP     1 STRESS PERIOD     1
      2 TOTAL ITERATIONS
  MAXIMUM CONCENTRATION CHANGES FOR EACH ITERATION:
  MAX. CHANGE LAYER,ROW,COL MAX. CHANGE LAYER,ROW,COL MAX. CHANGE LAYER,ROW,COL MAX. CHANGE LAYER,ROW,COL MAX. CHANGE LAYER,ROW,COL
 ------------------------------------------------------------------------------------------------------------------------------------
    0.000     (  1,  1,  1)   0.000     (  1,  1,  1)


                     STREAM MASS BUDGETS AT END OF TRANSPORT STEP   25, TIME STEP    1, STRESS PERIOD    1 FOR COMPONENT   1
                     -------------------------------------------------------------------------------------------------------

                                         CUMULATIVE MASS [M]                                     MASS FOR THIS TIME STEP [M]
                                         -------------------                                    --------------
                      STREAM DEPLETION =  0.2911899E-04                      STREAM DEPLETION =  0.5772587E-06
                      INFLOW TO STREAM =   208.1250                          INFLOW TO STREAM =   8.325000    
                          GW TO STREAM =   24.97597                              GW TO STREAM =  0.9990391    
                         PRECIPITATION =   0.000000                             PRECIPITATION =   0.000000    
                                RUNOFF =   0.000000                                    RUNOFF =   0.000000    
                CONSTANT CONCENTRATION =   0.000000                    CONSTANT CONCENTRATION =   0.000000    
                             MASS GAIN =   0.000000                                 MASS GAIN =   0.000000    
                                         -------------------                                    --------------
                              TOTAL IN =   233.1010                                  TOTAL IN =   9.324039    

                   STREAM ACCUMULATION =  0.3042414E-03                   STREAM ACCUMULATION =  0.1138895E-04
                        STREAM OUTFLOW =   233.1008                            STREAM OUTFLOW =   9.324030    
                          STREAM TO GW =   0.000000                              STREAM TO GW =   0.000000    
                CONSTANT CONCENTRATION =   0.000000                    CONSTANT CONCENTRATION =   0.000000    
                           EVAPORATION =   0.000000                               EVAPORATION =   0.000000    
                             MASS LOSS =   0.000000                                 MASS LOSS =   0.000000    
                                         -------------------                                    --------------
                             TOTAL OUT =   233.1011                                 TOTAL OUT =   9.324041    

                        NET (IN - OUT) = -0.1525879E-03                        NET (IN - OUT) = -0.1907349E-05
                 DISCREPANCY (PERCENT) = -0.6545998E-04                 DISCREPANCY (PERCENT) = -0.2045625E-04
                                              FLOW ERR (QIN-QOUT-DV) = -0.9536743E-06 [L3/T]




 >>>>>>>>>>>>>>>>>>>>>>>>>>>>>>>>>>>>>>>>>>>>>>>>>>>>>>>FOR COMPONENT NO. 01<<<<<<<<<<<<<<<<<<<<<<<<<<<<<<<<<<<<<<<<<<<<<<<<<<<<<<<


                                            -------------------------------------------
                                                      TRANSPORT STEP NO.   25
                                            -------------------------------------------

 TOTAL ELAPSED TIME SINCE BEGINNING OF SIMULATION =   4500.000    D   
 .....................................................................

                     CUMULATIVE MASS BUDGETS AT END OF TRANSPORT STEP   25, TIME STEP    1, STRESS PERIOD    1
                     -----------------------------------------------------------------------------------------

                                                             IN                           OUT
                                                      ----------------             ----------------
                               CONSTANT CONCENTRATION:    0.000000                    0.000000    
                                        CONSTANT HEAD:    56.16999                   -31.19474    
                                               STREAM:    0.000000                   -24.97597    
                               MASS STOR (FLOW MODEL):   0.7588209E-03              -0.1027444E-07
                                MASS STORAGE (SOLUTE):    0.000000                    0.000000    
                            ---------------------------------------------------------------------------
                                              [TOTAL]:    56.17075     KG            -56.17071     KG  

                                                          NET (IN - OUT):   0.4196167E-04
                                                   DISCREPANCY (PERCENT):   0.7470380E-04
     2 CALLS TO GCG PACKAGE FOR TRANSPORT TIME STEP    26 IN FLOW TIME STEP     1 STRESS PERIOD     1
      2 TOTAL ITERATIONS
  MAXIMUM CONCENTRATION CHANGES FOR EACH ITERATION:
  MAX. CHANGE LAYER,ROW,COL MAX. CHANGE LAYER,ROW,COL MAX. CHANGE LAYER,ROW,COL MAX. CHANGE LAYER,ROW,COL MAX. CHANGE LAYER,ROW,COL
 ------------------------------------------------------------------------------------------------------------------------------------
    0.000     (  1,  1,  1)   0.000     (  1,  1,  1)


                     STREAM MASS BUDGETS AT END OF TRANSPORT STEP   26, TIME STEP    1, STRESS PERIOD    1 FOR COMPONENT   1
                     -------------------------------------------------------------------------------------------------------

                                         CUMULATIVE MASS [M]                                     MASS FOR THIS TIME STEP [M]
                                         -------------------                                    --------------
                      STREAM DEPLETION =  0.2968108E-04                      STREAM DEPLETION =  0.5620881E-06
                      INFLOW TO STREAM =   216.4500                          INFLOW TO STREAM =   8.325000    
                          GW TO STREAM =   25.97501                              GW TO STREAM =  0.9990391    
                         PRECIPITATION =   0.000000                             PRECIPITATION =   0.000000    
                                RUNOFF =   0.000000                                    RUNOFF =   0.000000    
                CONSTANT CONCENTRATION =   0.000000                    CONSTANT CONCENTRATION =   0.000000    
                             MASS GAIN =   0.000000                                 MASS GAIN =   0.000000    
                                         -------------------                                    --------------
                              TOTAL IN =   242.4250                                  TOTAL IN =   9.324039    

                   STREAM ACCUMULATION =  0.3156239E-03                   STREAM ACCUMULATION =  0.1138249E-04
                        STREAM OUTFLOW =   242.4248                            STREAM OUTFLOW =   9.324030    
                          STREAM TO GW =   0.000000                              STREAM TO GW =   0.000000    
                CONSTANT CONCENTRATION =   0.000000                    CONSTANT CONCENTRATION =   0.000000    
                           EVAPORATION =   0.000000                               EVAPORATION =   0.000000    
                             MASS LOSS =   0.000000                                 MASS LOSS =   0.000000    
                                         -------------------                                    --------------
                             TOTAL OUT =   242.4252                                 TOTAL OUT =   9.324041    

                        NET (IN - OUT) = -0.1678467E-03                        NET (IN - OUT) = -0.1907349E-05
                 DISCREPANCY (PERCENT) = -0.6923651E-04                 DISCREPANCY (PERCENT) = -0.2045625E-04
                                              FLOW ERR (QIN-QOUT-DV) = -0.9536743E-06 [L3/T]




 >>>>>>>>>>>>>>>>>>>>>>>>>>>>>>>>>>>>>>>>>>>>>>>>>>>>>>>FOR COMPONENT NO. 01<<<<<<<<<<<<<<<<<<<<<<<<<<<<<<<<<<<<<<<<<<<<<<<<<<<<<<<


                                            -------------------------------------------
                                                      TRANSPORT STEP NO.   26
                                            -------------------------------------------

 TOTAL ELAPSED TIME SINCE BEGINNING OF SIMULATION =   4680.000    D   
 .....................................................................

                     CUMULATIVE MASS BUDGETS AT END OF TRANSPORT STEP   26, TIME STEP    1, STRESS PERIOD    1
                     -----------------------------------------------------------------------------------------

                                                             IN                           OUT
                                                      ----------------             ----------------
                               CONSTANT CONCENTRATION:    0.000000                    0.000000    
                                        CONSTANT HEAD:    58.41679                   -32.44253    
                                               STREAM:    0.000000                   -25.97501    
                               MASS STOR (FLOW MODEL):   0.7891738E-03              -0.1068542E-07
                                MASS STORAGE (SOLUTE):    0.000000                    0.000000    
                            ---------------------------------------------------------------------------
                                              [TOTAL]:    58.41758     KG            -58.41754     KG  

                                                          NET (IN - OUT):   0.4196167E-04
                                                   DISCREPANCY (PERCENT):   0.7183058E-04
     2 CALLS TO GCG PACKAGE FOR TRANSPORT TIME STEP    27 IN FLOW TIME STEP     1 STRESS PERIOD     1
      2 TOTAL ITERATIONS
  MAXIMUM CONCENTRATION CHANGES FOR EACH ITERATION:
  MAX. CHANGE LAYER,ROW,COL MAX. CHANGE LAYER,ROW,COL MAX. CHANGE LAYER,ROW,COL MAX. CHANGE LAYER,ROW,COL MAX. CHANGE LAYER,ROW,COL
 ------------------------------------------------------------------------------------------------------------------------------------
    0.000     (  1,  1,  1)   0.000     (  1,  1,  1)


                     STREAM MASS BUDGETS AT END OF TRANSPORT STEP   27, TIME STEP    1, STRESS PERIOD    1 FOR COMPONENT   1
                     -------------------------------------------------------------------------------------------------------

                                         CUMULATIVE MASS [M]                                     MASS FOR THIS TIME STEP [M]
                                         -------------------                                    --------------
                      STREAM DEPLETION =  0.3022754E-04                      STREAM DEPLETION =  0.5464631E-06
                      INFLOW TO STREAM =   224.7749                          INFLOW TO STREAM =   8.325000    
                          GW TO STREAM =   26.97405                              GW TO STREAM =  0.9990391    
                         PRECIPITATION =   0.000000                             PRECIPITATION =   0.000000    
                                RUNOFF =   0.000000                                    RUNOFF =   0.000000    
                CONSTANT CONCENTRATION =   0.000000                    CONSTANT CONCENTRATION =   0.000000    
                             MASS GAIN =   0.000000                                 MASS GAIN =   0.000000    
                                         -------------------                                    --------------
                              TOTAL IN =   251.7490                                  TOTAL IN =   9.324039    

                   STREAM ACCUMULATION =  0.3269998E-03                   STREAM ACCUMULATION =  0.1137591E-04
                        STREAM OUTFLOW =   251.7489                            STREAM OUTFLOW =   9.324030    
                          STREAM TO GW =   0.000000                              STREAM TO GW =   0.000000    
                CONSTANT CONCENTRATION =   0.000000                    CONSTANT CONCENTRATION =   0.000000    
                           EVAPORATION =   0.000000                               EVAPORATION =   0.000000    
                             MASS LOSS =   0.000000                                 MASS LOSS =   0.000000    
                                         -------------------                                    --------------
                             TOTAL OUT =   251.7492                                 TOTAL OUT =   9.324041    

                        NET (IN - OUT) = -0.1678467E-03                        NET (IN - OUT) = -0.1907349E-05
                 DISCREPANCY (PERCENT) = -0.6667220E-04                 DISCREPANCY (PERCENT) = -0.2045625E-04
                                              FLOW ERR (QIN-QOUT-DV) = -0.9536743E-06 [L3/T]




 >>>>>>>>>>>>>>>>>>>>>>>>>>>>>>>>>>>>>>>>>>>>>>>>>>>>>>>FOR COMPONENT NO. 01<<<<<<<<<<<<<<<<<<<<<<<<<<<<<<<<<<<<<<<<<<<<<<<<<<<<<<<


                                            -------------------------------------------
                                                      TRANSPORT STEP NO.   27
                                            -------------------------------------------

 TOTAL ELAPSED TIME SINCE BEGINNING OF SIMULATION =   4860.000    D   
 .....................................................................

                     CUMULATIVE MASS BUDGETS AT END OF TRANSPORT STEP   27, TIME STEP    1, STRESS PERIOD    1
                     -----------------------------------------------------------------------------------------

                                                             IN                           OUT
                                                      ----------------             ----------------
                               CONSTANT CONCENTRATION:    0.000000                    0.000000    
                                        CONSTANT HEAD:    60.66359                   -33.69032    
                                               STREAM:    0.000000                   -26.97405    
                               MASS STOR (FLOW MODEL):   0.8195266E-03              -0.1109640E-07
                                MASS STORAGE (SOLUTE):    0.000000                    0.000000    
                            ---------------------------------------------------------------------------
                                              [TOTAL]:    60.66441     KG            -60.66437     KG  

                                                          NET (IN - OUT):   0.4196167E-04
                                                   DISCREPANCY (PERCENT):   0.6917019E-04
     2 CALLS TO GCG PACKAGE FOR TRANSPORT TIME STEP    28 IN FLOW TIME STEP     1 STRESS PERIOD     1
      2 TOTAL ITERATIONS
  MAXIMUM CONCENTRATION CHANGES FOR EACH ITERATION:
  MAX. CHANGE LAYER,ROW,COL MAX. CHANGE LAYER,ROW,COL MAX. CHANGE LAYER,ROW,COL MAX. CHANGE LAYER,ROW,COL MAX. CHANGE LAYER,ROW,COL
 ------------------------------------------------------------------------------------------------------------------------------------
    0.000     (  1,  1,  1)   0.000     (  1,  1,  1)


                     STREAM MASS BUDGETS AT END OF TRANSPORT STEP   28, TIME STEP    1, STRESS PERIOD    1 FOR COMPONENT   1
                     -------------------------------------------------------------------------------------------------------

                                         CUMULATIVE MASS [M]                                     MASS FOR THIS TIME STEP [M]
                                         -------------------                                    --------------
                      STREAM DEPLETION =  0.3075813E-04                      STREAM DEPLETION =  0.5305907E-06
                      INFLOW TO STREAM =   233.0999                          INFLOW TO STREAM =   8.325000    
                          GW TO STREAM =   27.97309                              GW TO STREAM =  0.9990391    
                         PRECIPITATION =   0.000000                             PRECIPITATION =   0.000000    
                                RUNOFF =   0.000000                                    RUNOFF =   0.000000    
                CONSTANT CONCENTRATION =   0.000000                    CONSTANT CONCENTRATION =   0.000000    
                             MASS GAIN =   0.000000                                 MASS GAIN =   0.000000    
                                         -------------------                                    --------------
                              TOTAL IN =   261.0731                                  TOTAL IN =   9.324039    

                   STREAM ACCUMULATION =  0.3383679E-03                   STREAM ACCUMULATION =  0.1136814E-04
                        STREAM OUTFLOW =   261.0729                            STREAM OUTFLOW =   9.324030    
                          STREAM TO GW =   0.000000                              STREAM TO GW =   0.000000    
                CONSTANT CONCENTRATION =   0.000000                    CONSTANT CONCENTRATION =   0.000000    
                           EVAPORATION =   0.000000                               EVAPORATION =   0.000000    
                             MASS LOSS =   0.000000                                 MASS LOSS =   0.000000    
                                         -------------------                                    --------------
                             TOTAL OUT =   261.0732                                 TOTAL OUT =   9.324041    

                        NET (IN - OUT) = -0.1831055E-03                        NET (IN - OUT) = -0.1907349E-05
                 DISCREPANCY (PERCENT) = -0.7013570E-04                 DISCREPANCY (PERCENT) = -0.2045625E-04
                                              FLOW ERR (QIN-QOUT-DV) = -0.9536743E-06 [L3/T]




 >>>>>>>>>>>>>>>>>>>>>>>>>>>>>>>>>>>>>>>>>>>>>>>>>>>>>>>FOR COMPONENT NO. 01<<<<<<<<<<<<<<<<<<<<<<<<<<<<<<<<<<<<<<<<<<<<<<<<<<<<<<<


                                            -------------------------------------------
                                                      TRANSPORT STEP NO.   28
                                            -------------------------------------------

 TOTAL ELAPSED TIME SINCE BEGINNING OF SIMULATION =   5040.000    D   
 .....................................................................

                     CUMULATIVE MASS BUDGETS AT END OF TRANSPORT STEP   28, TIME STEP    1, STRESS PERIOD    1
                     -----------------------------------------------------------------------------------------

                                                             IN                           OUT
                                                      ----------------             ----------------
                               CONSTANT CONCENTRATION:    0.000000                    0.000000    
                                        CONSTANT HEAD:    62.91039                   -34.93811    
                                               STREAM:    0.000000                   -27.97309    
                               MASS STOR (FLOW MODEL):   0.8498795E-03              -0.1150737E-07
                                MASS STORAGE (SOLUTE):    0.000000                    0.000000    
                            ---------------------------------------------------------------------------
                                              [TOTAL]:    62.91124     KG            -62.91120     KG  

                                                          NET (IN - OUT):   0.4196167E-04
                                                   DISCREPANCY (PERCENT):   0.6669982E-04
     2 CALLS TO GCG PACKAGE FOR TRANSPORT TIME STEP    29 IN FLOW TIME STEP     1 STRESS PERIOD     1
      2 TOTAL ITERATIONS
  MAXIMUM CONCENTRATION CHANGES FOR EACH ITERATION:
  MAX. CHANGE LAYER,ROW,COL MAX. CHANGE LAYER,ROW,COL MAX. CHANGE LAYER,ROW,COL MAX. CHANGE LAYER,ROW,COL MAX. CHANGE LAYER,ROW,COL
 ------------------------------------------------------------------------------------------------------------------------------------
    0.000     (  1,  1,  1)   0.000     (  1,  1,  1)


                     STREAM MASS BUDGETS AT END OF TRANSPORT STEP   29, TIME STEP    1, STRESS PERIOD    1 FOR COMPONENT   1
                     -------------------------------------------------------------------------------------------------------

                                         CUMULATIVE MASS [M]                                     MASS FOR THIS TIME STEP [M]
                                         -------------------                                    --------------
                      STREAM DEPLETION =  0.3127279E-04                      STREAM DEPLETION =  0.5146545E-06
                      INFLOW TO STREAM =   241.4249                          INFLOW TO STREAM =   8.325000    
                          GW TO STREAM =   28.97213                              GW TO STREAM =  0.9990391    
                         PRECIPITATION =   0.000000                             PRECIPITATION =   0.000000    
                                RUNOFF =   0.000000                                    RUNOFF =   0.000000    
                CONSTANT CONCENTRATION =   0.000000                    CONSTANT CONCENTRATION =   0.000000    
                             MASS GAIN =   0.000000                                 MASS GAIN =   0.000000    
                                         -------------------                                    --------------
                              TOTAL IN =   270.3971                                  TOTAL IN =   9.324039    

                   STREAM ACCUMULATION =  0.3497285E-03                   STREAM ACCUMULATION =  0.1136060E-04
                        STREAM OUTFLOW =   270.3969                            STREAM OUTFLOW =   9.324030    
                          STREAM TO GW =   0.000000                              STREAM TO GW =   0.000000    
                CONSTANT CONCENTRATION =   0.000000                    CONSTANT CONCENTRATION =   0.000000    
                           EVAPORATION =   0.000000                               EVAPORATION =   0.000000    
                             MASS LOSS =   0.000000                                 MASS LOSS =   0.000000    
                                         -------------------                                    --------------
                             TOTAL OUT =   270.3973                                 TOTAL OUT =   9.324041    

                        NET (IN - OUT) = -0.1831055E-03                        NET (IN - OUT) = -0.1907349E-05
                 DISCREPANCY (PERCENT) = -0.6771722E-04                 DISCREPANCY (PERCENT) = -0.2045625E-04
                                              FLOW ERR (QIN-QOUT-DV) = -0.9536743E-06 [L3/T]




 >>>>>>>>>>>>>>>>>>>>>>>>>>>>>>>>>>>>>>>>>>>>>>>>>>>>>>>FOR COMPONENT NO. 01<<<<<<<<<<<<<<<<<<<<<<<<<<<<<<<<<<<<<<<<<<<<<<<<<<<<<<<


                                            -------------------------------------------
                                                      TRANSPORT STEP NO.   29
                                            -------------------------------------------

 TOTAL ELAPSED TIME SINCE BEGINNING OF SIMULATION =   5220.000    D   
 .....................................................................

                     CUMULATIVE MASS BUDGETS AT END OF TRANSPORT STEP   29, TIME STEP    1, STRESS PERIOD    1
                     -----------------------------------------------------------------------------------------

                                                             IN                           OUT
                                                      ----------------             ----------------
                               CONSTANT CONCENTRATION:    0.000000                    0.000000    
                                        CONSTANT HEAD:    65.15719                   -36.18590    
                                               STREAM:    0.000000                   -28.97213    
                               MASS STOR (FLOW MODEL):   0.8802323E-03              -0.1191835E-07
                                MASS STORAGE (SOLUTE):    0.000000                    0.000000    
                            ---------------------------------------------------------------------------
                                              [TOTAL]:    65.15807     KG            -65.15803     KG  

                                                          NET (IN - OUT):   0.3814697E-04
                                                   DISCREPANCY (PERCENT):   0.5854529E-04
     2 CALLS TO GCG PACKAGE FOR TRANSPORT TIME STEP    30 IN FLOW TIME STEP     1 STRESS PERIOD     1
      2 TOTAL ITERATIONS
  MAXIMUM CONCENTRATION CHANGES FOR EACH ITERATION:
  MAX. CHANGE LAYER,ROW,COL MAX. CHANGE LAYER,ROW,COL MAX. CHANGE LAYER,ROW,COL MAX. CHANGE LAYER,ROW,COL MAX. CHANGE LAYER,ROW,COL
 ------------------------------------------------------------------------------------------------------------------------------------
    0.000     (  1,  1,  1)   0.000     (  1,  1,  1)


                     STREAM MASS BUDGETS AT END OF TRANSPORT STEP   30, TIME STEP    1, STRESS PERIOD    1 FOR COMPONENT   1
                     -------------------------------------------------------------------------------------------------------

                                         CUMULATIVE MASS [M]                                     MASS FOR THIS TIME STEP [M]
                                         -------------------                                    --------------
                      STREAM DEPLETION =  0.3177103E-04                      STREAM DEPLETION =  0.4982415E-06
                      INFLOW TO STREAM =   249.7499                          INFLOW TO STREAM =   8.325000    
                          GW TO STREAM =   29.97116                              GW TO STREAM =  0.9990391    
                         PRECIPITATION =   0.000000                             PRECIPITATION =   0.000000    
                                RUNOFF =   0.000000                                    RUNOFF =   0.000000    
                CONSTANT CONCENTRATION =   0.000000                    CONSTANT CONCENTRATION =   0.000000    
                             MASS GAIN =   0.000000                                 MASS GAIN =   0.000000    
                                         -------------------                                    --------------
                              TOTAL IN =   279.7211                                  TOTAL IN =   9.324039    

                   STREAM ACCUMULATION =  0.3610803E-03                   STREAM ACCUMULATION =  0.1135179E-04
                        STREAM OUTFLOW =   279.7210                            STREAM OUTFLOW =   9.324030    
                          STREAM TO GW =   0.000000                              STREAM TO GW =   0.000000    
                CONSTANT CONCENTRATION =   0.000000                    CONSTANT CONCENTRATION =   0.000000    
                           EVAPORATION =   0.000000                               EVAPORATION =   0.000000    
                             MASS LOSS =   0.000000                                 MASS LOSS =   0.000000    
                                         -------------------                                    --------------
                             TOTAL OUT =   279.7213                                 TOTAL OUT =   9.324041    

                        NET (IN - OUT) = -0.2136230E-03                        NET (IN - OUT) = -0.1907349E-05
                 DISCREPANCY (PERCENT) = -0.7636997E-04                 DISCREPANCY (PERCENT) = -0.2045625E-04
                                              FLOW ERR (QIN-QOUT-DV) = -0.9536743E-06 [L3/T]




 >>>>>>>>>>>>>>>>>>>>>>>>>>>>>>>>>>>>>>>>>>>>>>>>>>>>>>>FOR COMPONENT NO. 01<<<<<<<<<<<<<<<<<<<<<<<<<<<<<<<<<<<<<<<<<<<<<<<<<<<<<<<


                                            -------------------------------------------
                                                      TRANSPORT STEP NO.   30
                                            -------------------------------------------

 TOTAL ELAPSED TIME SINCE BEGINNING OF SIMULATION =   5400.000    D   
 .....................................................................

                     CUMULATIVE MASS BUDGETS AT END OF TRANSPORT STEP   30, TIME STEP    1, STRESS PERIOD    1
                     -----------------------------------------------------------------------------------------

                                                             IN                           OUT
                                                      ----------------             ----------------
                               CONSTANT CONCENTRATION:    0.000000                    0.000000    
                                        CONSTANT HEAD:    67.40399                   -37.43369    
                                               STREAM:    0.000000                   -29.97116    
                               MASS STOR (FLOW MODEL):   0.9105852E-03              -0.1232933E-07
                                MASS STORAGE (SOLUTE):    0.000000                    0.000000    
                            ---------------------------------------------------------------------------
                                              [TOTAL]:    67.40490     KG            -67.40486     KG  

                                                          NET (IN - OUT):   0.3814697E-04
                                                   DISCREPANCY (PERCENT):   0.5659379E-04
     2 CALLS TO GCG PACKAGE FOR TRANSPORT TIME STEP    31 IN FLOW TIME STEP     1 STRESS PERIOD     1
      2 TOTAL ITERATIONS
  MAXIMUM CONCENTRATION CHANGES FOR EACH ITERATION:
  MAX. CHANGE LAYER,ROW,COL MAX. CHANGE LAYER,ROW,COL MAX. CHANGE LAYER,ROW,COL MAX. CHANGE LAYER,ROW,COL MAX. CHANGE LAYER,ROW,COL
 ------------------------------------------------------------------------------------------------------------------------------------
    0.000     (  1,  1,  1)   0.000     (  1,  1,  1)


                     STREAM MASS BUDGETS AT END OF TRANSPORT STEP   31, TIME STEP    1, STRESS PERIOD    1 FOR COMPONENT   1
                     -------------------------------------------------------------------------------------------------------

                                         CUMULATIVE MASS [M]                                     MASS FOR THIS TIME STEP [M]
                                         -------------------                                    --------------
                      STREAM DEPLETION =  0.3225278E-04                      STREAM DEPLETION =  0.4817492E-06
                      INFLOW TO STREAM =   258.0750                          INFLOW TO STREAM =   8.325000    
                          GW TO STREAM =   30.97020                              GW TO STREAM =  0.9990391    
                         PRECIPITATION =   0.000000                             PRECIPITATION =   0.000000    
                                RUNOFF =   0.000000                                    RUNOFF =   0.000000    
                CONSTANT CONCENTRATION =   0.000000                    CONSTANT CONCENTRATION =   0.000000    
                             MASS GAIN =   0.000000                                 MASS GAIN =   0.000000    
                                         -------------------                                    --------------
                              TOTAL IN =   289.0452                                  TOTAL IN =   9.324039    

                   STREAM ACCUMULATION =  0.3724236E-03                   STREAM ACCUMULATION =  0.1134326E-04
                        STREAM OUTFLOW =   289.0450                            STREAM OUTFLOW =   9.324030    
                          STREAM TO GW =   0.000000                              STREAM TO GW =   0.000000    
                CONSTANT CONCENTRATION =   0.000000                    CONSTANT CONCENTRATION =   0.000000    
                           EVAPORATION =   0.000000                               EVAPORATION =   0.000000    
                             MASS LOSS =   0.000000                                 MASS LOSS =   0.000000    
                                         -------------------                                    --------------
                             TOTAL OUT =   289.0454                                 TOTAL OUT =   9.324041    

                        NET (IN - OUT) = -0.1831055E-03                        NET (IN - OUT) = -0.1907349E-05
                 DISCREPANCY (PERCENT) = -0.6334837E-04                 DISCREPANCY (PERCENT) = -0.2045625E-04
                                              FLOW ERR (QIN-QOUT-DV) = -0.9536743E-06 [L3/T]




 >>>>>>>>>>>>>>>>>>>>>>>>>>>>>>>>>>>>>>>>>>>>>>>>>>>>>>>FOR COMPONENT NO. 01<<<<<<<<<<<<<<<<<<<<<<<<<<<<<<<<<<<<<<<<<<<<<<<<<<<<<<<


                                            -------------------------------------------
                                                      TRANSPORT STEP NO.   31
                                            -------------------------------------------

 TOTAL ELAPSED TIME SINCE BEGINNING OF SIMULATION =   5580.000    D   
 .....................................................................

                     CUMULATIVE MASS BUDGETS AT END OF TRANSPORT STEP   31, TIME STEP    1, STRESS PERIOD    1
                     -----------------------------------------------------------------------------------------

                                                             IN                           OUT
                                                      ----------------             ----------------
                               CONSTANT CONCENTRATION:    0.000000                    0.000000    
                                        CONSTANT HEAD:    69.65079                   -38.68148    
                                               STREAM:    0.000000                   -30.97020    
                               MASS STOR (FLOW MODEL):   0.9409380E-03              -0.1274031E-07
                                MASS STORAGE (SOLUTE):    0.000000                    0.000000    
                            ---------------------------------------------------------------------------
                                              [TOTAL]:    69.65173     KG            -69.65169     KG  

                                                          NET (IN - OUT):   0.4577637E-04
                                                   DISCREPANCY (PERCENT):   0.6572181E-04
     2 CALLS TO GCG PACKAGE FOR TRANSPORT TIME STEP    32 IN FLOW TIME STEP     1 STRESS PERIOD     1
      2 TOTAL ITERATIONS
  MAXIMUM CONCENTRATION CHANGES FOR EACH ITERATION:
  MAX. CHANGE LAYER,ROW,COL MAX. CHANGE LAYER,ROW,COL MAX. CHANGE LAYER,ROW,COL MAX. CHANGE LAYER,ROW,COL MAX. CHANGE LAYER,ROW,COL
 ------------------------------------------------------------------------------------------------------------------------------------
    0.000     (  1,  1,  1)   0.000     (  1,  1,  1)


                     STREAM MASS BUDGETS AT END OF TRANSPORT STEP   32, TIME STEP    1, STRESS PERIOD    1 FOR COMPONENT   1
                     -------------------------------------------------------------------------------------------------------

                                         CUMULATIVE MASS [M]                                     MASS FOR THIS TIME STEP [M]
                                         -------------------                                    --------------
                      STREAM DEPLETION =  0.3271715E-04                      STREAM DEPLETION =  0.4643739E-06
                      INFLOW TO STREAM =   266.4000                          INFLOW TO STREAM =   8.325000    
                          GW TO STREAM =   31.96924                              GW TO STREAM =  0.9990391    
                         PRECIPITATION =   0.000000                             PRECIPITATION =   0.000000    
                                RUNOFF =   0.000000                                    RUNOFF =   0.000000    
                CONSTANT CONCENTRATION =   0.000000                    CONSTANT CONCENTRATION =   0.000000    
                             MASS GAIN =   0.000000                                 MASS GAIN =   0.000000    
                                         -------------------                                    --------------
                              TOTAL IN =   298.3692                                  TOTAL IN =   9.324039    

                   STREAM ACCUMULATION =  0.3837568E-03                   STREAM ACCUMULATION =  0.1133327E-04
                        STREAM OUTFLOW =   298.3690                            STREAM OUTFLOW =   9.324030    
                          STREAM TO GW =   0.000000                              STREAM TO GW =   0.000000    
                CONSTANT CONCENTRATION =   0.000000                    CONSTANT CONCENTRATION =   0.000000    
                           EVAPORATION =   0.000000                               EVAPORATION =   0.000000    
                             MASS LOSS =   0.000000                                 MASS LOSS =   0.000000    
                                         -------------------                                    --------------
                             TOTAL OUT =   298.3694                                 TOTAL OUT =   9.324041    

                        NET (IN - OUT) = -0.2136230E-03                        NET (IN - OUT) = -0.2861023E-05
                 DISCREPANCY (PERCENT) = -0.7159686E-04                 DISCREPANCY (PERCENT) = -0.3068437E-04
                                              FLOW ERR (QIN-QOUT-DV) = -0.9536743E-06 [L3/T]




 >>>>>>>>>>>>>>>>>>>>>>>>>>>>>>>>>>>>>>>>>>>>>>>>>>>>>>>FOR COMPONENT NO. 01<<<<<<<<<<<<<<<<<<<<<<<<<<<<<<<<<<<<<<<<<<<<<<<<<<<<<<<


                                            -------------------------------------------
                                                      TRANSPORT STEP NO.   32
                                            -------------------------------------------

 TOTAL ELAPSED TIME SINCE BEGINNING OF SIMULATION =   5760.000    D   
 .....................................................................

                     CUMULATIVE MASS BUDGETS AT END OF TRANSPORT STEP   32, TIME STEP    1, STRESS PERIOD    1
                     -----------------------------------------------------------------------------------------

                                                             IN                           OUT
                                                      ----------------             ----------------
                               CONSTANT CONCENTRATION:    0.000000                    0.000000    
                                        CONSTANT HEAD:    71.89760                   -39.92928    
                                               STREAM:    0.000000                   -31.96924    
                               MASS STOR (FLOW MODEL):   0.9712909E-03              -0.1315129E-07
                                MASS STORAGE (SOLUTE):    0.000000                    0.000000    
                            ---------------------------------------------------------------------------
                                              [TOTAL]:    71.89857     KG            -71.89851     KG  

                                                          NET (IN - OUT):   0.5340576E-04
                                                   DISCREPANCY (PERCENT):   0.7427933E-04
     2 CALLS TO GCG PACKAGE FOR TRANSPORT TIME STEP    33 IN FLOW TIME STEP     1 STRESS PERIOD     1
      2 TOTAL ITERATIONS
  MAXIMUM CONCENTRATION CHANGES FOR EACH ITERATION:
  MAX. CHANGE LAYER,ROW,COL MAX. CHANGE LAYER,ROW,COL MAX. CHANGE LAYER,ROW,COL MAX. CHANGE LAYER,ROW,COL MAX. CHANGE LAYER,ROW,COL
 ------------------------------------------------------------------------------------------------------------------------------------
    0.000     (  1,  1,  1)   0.000     (  1,  1,  1)


                     STREAM MASS BUDGETS AT END OF TRANSPORT STEP   33, TIME STEP    1, STRESS PERIOD    1 FOR COMPONENT   1
                     -------------------------------------------------------------------------------------------------------

                                         CUMULATIVE MASS [M]                                     MASS FOR THIS TIME STEP [M]
                                         -------------------                                    --------------
                      STREAM DEPLETION =  0.3316572E-04                      STREAM DEPLETION =  0.4485754E-06
                      INFLOW TO STREAM =   274.7250                          INFLOW TO STREAM =   8.325000    
                          GW TO STREAM =   32.96828                              GW TO STREAM =  0.9990391    
                         PRECIPITATION =   0.000000                             PRECIPITATION =   0.000000    
                                RUNOFF =   0.000000                                    RUNOFF =   0.000000    
                CONSTANT CONCENTRATION =   0.000000                    CONSTANT CONCENTRATION =   0.000000    
                             MASS GAIN =   0.000000                                 MASS GAIN =   0.000000    
                                         -------------------                                    --------------
                              TOTAL IN =   307.6933                                  TOTAL IN =   9.324039    

                   STREAM ACCUMULATION =  0.3950821E-03                   STREAM ACCUMULATION =  0.1132531E-04
                        STREAM OUTFLOW =   307.6931                            STREAM OUTFLOW =   9.324030    
                          STREAM TO GW =   0.000000                              STREAM TO GW =   0.000000    
                CONSTANT CONCENTRATION =   0.000000                    CONSTANT CONCENTRATION =   0.000000    
                           EVAPORATION =   0.000000                               EVAPORATION =   0.000000    
                             MASS LOSS =   0.000000                                 MASS LOSS =   0.000000    
                                         -------------------                                    --------------
                             TOTAL OUT =   307.6935                                 TOTAL OUT =   9.324041    

                        NET (IN - OUT) = -0.1831055E-03                        NET (IN - OUT) = -0.2861023E-05
                 DISCREPANCY (PERCENT) = -0.5950907E-04                 DISCREPANCY (PERCENT) = -0.3068437E-04
                                              FLOW ERR (QIN-QOUT-DV) = -0.9536743E-06 [L3/T]




 >>>>>>>>>>>>>>>>>>>>>>>>>>>>>>>>>>>>>>>>>>>>>>>>>>>>>>>FOR COMPONENT NO. 01<<<<<<<<<<<<<<<<<<<<<<<<<<<<<<<<<<<<<<<<<<<<<<<<<<<<<<<


                                            -------------------------------------------
                                                      TRANSPORT STEP NO.   33
                                            -------------------------------------------

 TOTAL ELAPSED TIME SINCE BEGINNING OF SIMULATION =   5940.000    D   
 .....................................................................

                     CUMULATIVE MASS BUDGETS AT END OF TRANSPORT STEP   33, TIME STEP    1, STRESS PERIOD    1
                     -----------------------------------------------------------------------------------------

                                                             IN                           OUT
                                                      ----------------             ----------------
                               CONSTANT CONCENTRATION:    0.000000                    0.000000    
                                        CONSTANT HEAD:    74.14440                   -41.17707    
                                               STREAM:    0.000000                   -32.96828    
                               MASS STOR (FLOW MODEL):   0.1001644E-02              -0.1356226E-07
                                MASS STORAGE (SOLUTE):    0.000000                    0.000000    
                            ---------------------------------------------------------------------------
                                              [TOTAL]:    74.14540     KG            -74.14535     KG  

                                                          NET (IN - OUT):   0.5340576E-04
                                                   DISCREPANCY (PERCENT):   0.7202845E-04
     2 CALLS TO GCG PACKAGE FOR TRANSPORT TIME STEP    34 IN FLOW TIME STEP     1 STRESS PERIOD     1
      2 TOTAL ITERATIONS
  MAXIMUM CONCENTRATION CHANGES FOR EACH ITERATION:
  MAX. CHANGE LAYER,ROW,COL MAX. CHANGE LAYER,ROW,COL MAX. CHANGE LAYER,ROW,COL MAX. CHANGE LAYER,ROW,COL MAX. CHANGE LAYER,ROW,COL
 ------------------------------------------------------------------------------------------------------------------------------------
    0.000     (  1,  1,  1)   0.000     (  1,  1,  1)


                     STREAM MASS BUDGETS AT END OF TRANSPORT STEP   34, TIME STEP    1, STRESS PERIOD    1 FOR COMPONENT   1
                     -------------------------------------------------------------------------------------------------------

                                         CUMULATIVE MASS [M]                                     MASS FOR THIS TIME STEP [M]
                                         -------------------                                    --------------
                      STREAM DEPLETION =  0.3359722E-04                      STREAM DEPLETION =  0.4314948E-06
                      INFLOW TO STREAM =   283.0500                          INFLOW TO STREAM =   8.325000    
                          GW TO STREAM =   33.96732                              GW TO STREAM =  0.9990391    
                         PRECIPITATION =   0.000000                             PRECIPITATION =   0.000000    
                                RUNOFF =   0.000000                                    RUNOFF =   0.000000    
                CONSTANT CONCENTRATION =   0.000000                    CONSTANT CONCENTRATION =   0.000000    
                             MASS GAIN =   0.000000                                 MASS GAIN =   0.000000    
                                         -------------------                                    --------------
                              TOTAL IN =   317.0173                                  TOTAL IN =   9.324039    

                   STREAM ACCUMULATION =  0.4063979E-03                   STREAM ACCUMULATION =  0.1131572E-04
                        STREAM OUTFLOW =   317.0171                            STREAM OUTFLOW =   9.324030    
                          STREAM TO GW =   0.000000                              STREAM TO GW =   0.000000    
                CONSTANT CONCENTRATION =   0.000000                    CONSTANT CONCENTRATION =   0.000000    
                           EVAPORATION =   0.000000                               EVAPORATION =   0.000000    
                             MASS LOSS =   0.000000                                 MASS LOSS =   0.000000    
                                         -------------------                                    --------------
                             TOTAL OUT =   317.0175                                 TOTAL OUT =   9.324041    

                        NET (IN - OUT) = -0.1831055E-03                        NET (IN - OUT) = -0.2861023E-05
                 DISCREPANCY (PERCENT) = -0.5775880E-04                 DISCREPANCY (PERCENT) = -0.3068437E-04
                                              FLOW ERR (QIN-QOUT-DV) = -0.9536743E-06 [L3/T]




 >>>>>>>>>>>>>>>>>>>>>>>>>>>>>>>>>>>>>>>>>>>>>>>>>>>>>>>FOR COMPONENT NO. 01<<<<<<<<<<<<<<<<<<<<<<<<<<<<<<<<<<<<<<<<<<<<<<<<<<<<<<<


                                            -------------------------------------------
                                                      TRANSPORT STEP NO.   34
                                            -------------------------------------------

 TOTAL ELAPSED TIME SINCE BEGINNING OF SIMULATION =   6120.000    D   
 .....................................................................

                     CUMULATIVE MASS BUDGETS AT END OF TRANSPORT STEP   34, TIME STEP    1, STRESS PERIOD    1
                     -----------------------------------------------------------------------------------------

                                                             IN                           OUT
                                                      ----------------             ----------------
                               CONSTANT CONCENTRATION:    0.000000                    0.000000    
                                        CONSTANT HEAD:    76.39120                   -42.42486    
                                               STREAM:    0.000000                   -33.96732    
                               MASS STOR (FLOW MODEL):   0.1031997E-02              -0.1397324E-07
                                MASS STORAGE (SOLUTE):    0.000000                    0.000000    
                            ---------------------------------------------------------------------------
                                              [TOTAL]:    76.39223     KG            -76.39218     KG  

                                                          NET (IN - OUT):   0.5340576E-04
                                                   DISCREPANCY (PERCENT):   0.6990995E-04
     2 CALLS TO GCG PACKAGE FOR TRANSPORT TIME STEP    35 IN FLOW TIME STEP     1 STRESS PERIOD     1
      2 TOTAL ITERATIONS
  MAXIMUM CONCENTRATION CHANGES FOR EACH ITERATION:
  MAX. CHANGE LAYER,ROW,COL MAX. CHANGE LAYER,ROW,COL MAX. CHANGE LAYER,ROW,COL MAX. CHANGE LAYER,ROW,COL MAX. CHANGE LAYER,ROW,COL
 ------------------------------------------------------------------------------------------------------------------------------------
    0.000     (  1,  1,  1)   0.000     (  1,  1,  1)


                     STREAM MASS BUDGETS AT END OF TRANSPORT STEP   35, TIME STEP    1, STRESS PERIOD    1 FOR COMPONENT   1
                     -------------------------------------------------------------------------------------------------------

                                         CUMULATIVE MASS [M]                                     MASS FOR THIS TIME STEP [M]
                                         -------------------                                    --------------
                      STREAM DEPLETION =  0.3401295E-04                      STREAM DEPLETION =  0.4157300E-06
                      INFLOW TO STREAM =   291.3750                          INFLOW TO STREAM =   8.325000    
                          GW TO STREAM =   34.96636                              GW TO STREAM =  0.9990391    
                         PRECIPITATION =   0.000000                             PRECIPITATION =   0.000000    
                                RUNOFF =   0.000000                                    RUNOFF =   0.000000    
                CONSTANT CONCENTRATION =   0.000000                    CONSTANT CONCENTRATION =   0.000000    
                             MASS GAIN =   0.000000                                 MASS GAIN =   0.000000    
                                         -------------------                                    --------------
                              TOTAL IN =   326.3414                                  TOTAL IN =   9.324039    

                   STREAM ACCUMULATION =  0.4177059E-03                   STREAM ACCUMULATION =  0.1130800E-04
                        STREAM OUTFLOW =   326.3412                            STREAM OUTFLOW =   9.324030    
                          STREAM TO GW =   0.000000                              STREAM TO GW =   0.000000    
                CONSTANT CONCENTRATION =   0.000000                    CONSTANT CONCENTRATION =   0.000000    
                           EVAPORATION =   0.000000                               EVAPORATION =   0.000000    
                             MASS LOSS =   0.000000                                 MASS LOSS =   0.000000    
                                         -------------------                                    --------------
                             TOTAL OUT =   326.3416                                 TOTAL OUT =   9.324041    

                        NET (IN - OUT) = -0.1831055E-03                        NET (IN - OUT) = -0.2861023E-05
                 DISCREPANCY (PERCENT) = -0.5610855E-04                 DISCREPANCY (PERCENT) = -0.3068437E-04
                                              FLOW ERR (QIN-QOUT-DV) = -0.9536743E-06 [L3/T]




 >>>>>>>>>>>>>>>>>>>>>>>>>>>>>>>>>>>>>>>>>>>>>>>>>>>>>>>FOR COMPONENT NO. 01<<<<<<<<<<<<<<<<<<<<<<<<<<<<<<<<<<<<<<<<<<<<<<<<<<<<<<<


                                            -------------------------------------------
                                                      TRANSPORT STEP NO.   35
                                            -------------------------------------------

 TOTAL ELAPSED TIME SINCE BEGINNING OF SIMULATION =   6300.000    D   
 .....................................................................

                     CUMULATIVE MASS BUDGETS AT END OF TRANSPORT STEP   35, TIME STEP    1, STRESS PERIOD    1
                     -----------------------------------------------------------------------------------------

                                                             IN                           OUT
                                                      ----------------             ----------------
                               CONSTANT CONCENTRATION:    0.000000                    0.000000    
                                        CONSTANT HEAD:    78.63801                   -43.67265    
                                               STREAM:    0.000000                   -34.96636    
                               MASS STOR (FLOW MODEL):   0.1062349E-02              -0.1438422E-07
                                MASS STORAGE (SOLUTE):    0.000000                    0.000000    
                            ---------------------------------------------------------------------------
                                              [TOTAL]:    78.63907     KG            -78.63901     KG  

                                                          NET (IN - OUT):   0.6103516E-04
                                                   DISCREPANCY (PERCENT):   0.7761432E-04
     2 CALLS TO GCG PACKAGE FOR TRANSPORT TIME STEP    36 IN FLOW TIME STEP     1 STRESS PERIOD     1
      2 TOTAL ITERATIONS
  MAXIMUM CONCENTRATION CHANGES FOR EACH ITERATION:
  MAX. CHANGE LAYER,ROW,COL MAX. CHANGE LAYER,ROW,COL MAX. CHANGE LAYER,ROW,COL MAX. CHANGE LAYER,ROW,COL MAX. CHANGE LAYER,ROW,COL
 ------------------------------------------------------------------------------------------------------------------------------------
    0.000     (  1,  1,  1)   0.000     (  1,  1,  1)


                     STREAM MASS BUDGETS AT END OF TRANSPORT STEP   36, TIME STEP    1, STRESS PERIOD    1 FOR COMPONENT   1
                     -------------------------------------------------------------------------------------------------------

                                         CUMULATIVE MASS [M]                                     MASS FOR THIS TIME STEP [M]
                                         -------------------                                    --------------
                      STREAM DEPLETION =  0.3441329E-04                      STREAM DEPLETION =  0.4003416E-06
                      INFLOW TO STREAM =   299.7000                          INFLOW TO STREAM =   8.325000    
                          GW TO STREAM =   35.96540                              GW TO STREAM =  0.9990391    
                         PRECIPITATION =   0.000000                             PRECIPITATION =   0.000000    
                                RUNOFF =   0.000000                                    RUNOFF =   0.000000    
                CONSTANT CONCENTRATION =   0.000000                    CONSTANT CONCENTRATION =   0.000000    
                             MASS GAIN =   0.000000                                 MASS GAIN =   0.000000    
                                         -------------------                                    --------------
                              TOTAL IN =   335.6654                                  TOTAL IN =   9.324039    

                   STREAM ACCUMULATION =  0.4290064E-03                   STREAM ACCUMULATION =  0.1130049E-04
                        STREAM OUTFLOW =   335.6652                            STREAM OUTFLOW =   9.324030    
                          STREAM TO GW =   0.000000                              STREAM TO GW =   0.000000    
                CONSTANT CONCENTRATION =   0.000000                    CONSTANT CONCENTRATION =   0.000000    
                           EVAPORATION =   0.000000                               EVAPORATION =   0.000000    
                             MASS LOSS =   0.000000                                 MASS LOSS =   0.000000    
                                         -------------------                                    --------------
                             TOTAL OUT =   335.6656                                 TOTAL OUT =   9.324041    

                        NET (IN - OUT) = -0.1831055E-03                        NET (IN - OUT) = -0.2861023E-05
                 DISCREPANCY (PERCENT) = -0.5454998E-04                 DISCREPANCY (PERCENT) = -0.3068437E-04
                                              FLOW ERR (QIN-QOUT-DV) = -0.9536743E-06 [L3/T]




 >>>>>>>>>>>>>>>>>>>>>>>>>>>>>>>>>>>>>>>>>>>>>>>>>>>>>>>FOR COMPONENT NO. 01<<<<<<<<<<<<<<<<<<<<<<<<<<<<<<<<<<<<<<<<<<<<<<<<<<<<<<<


                                            -------------------------------------------
                                                      TRANSPORT STEP NO.   36
                                            -------------------------------------------

 TOTAL ELAPSED TIME SINCE BEGINNING OF SIMULATION =   6480.000    D   
 .....................................................................

                     CUMULATIVE MASS BUDGETS AT END OF TRANSPORT STEP   36, TIME STEP    1, STRESS PERIOD    1
                     -----------------------------------------------------------------------------------------

                                                             IN                           OUT
                                                      ----------------             ----------------
                               CONSTANT CONCENTRATION:    0.000000                    0.000000    
                                        CONSTANT HEAD:    80.88481                   -44.92044    
                                               STREAM:    0.000000                   -35.96540    
                               MASS STOR (FLOW MODEL):   0.1092702E-02              -0.1479520E-07
                                MASS STORAGE (SOLUTE):    0.000000                    0.000000    
                            ---------------------------------------------------------------------------
                                              [TOTAL]:    80.88590     KG            -80.88583     KG  

                                                          NET (IN - OUT):   0.6866455E-04
                                                   DISCREPANCY (PERCENT):   0.8489067E-04
     2 CALLS TO GCG PACKAGE FOR TRANSPORT TIME STEP    37 IN FLOW TIME STEP     1 STRESS PERIOD     1
      2 TOTAL ITERATIONS
  MAXIMUM CONCENTRATION CHANGES FOR EACH ITERATION:
  MAX. CHANGE LAYER,ROW,COL MAX. CHANGE LAYER,ROW,COL MAX. CHANGE LAYER,ROW,COL MAX. CHANGE LAYER,ROW,COL MAX. CHANGE LAYER,ROW,COL
 ------------------------------------------------------------------------------------------------------------------------------------
    0.000     (  1,  1,  1)   0.000     (  1,  1,  1)


                     STREAM MASS BUDGETS AT END OF TRANSPORT STEP   37, TIME STEP    1, STRESS PERIOD    1 FOR COMPONENT   1
                     -------------------------------------------------------------------------------------------------------

                                         CUMULATIVE MASS [M]                                     MASS FOR THIS TIME STEP [M]
                                         -------------------                                    --------------
                      STREAM DEPLETION =  0.3479961E-04                      STREAM DEPLETION =  0.3863175E-06
                      INFLOW TO STREAM =   308.0250                          INFLOW TO STREAM =   8.325000    
                          GW TO STREAM =   36.96444                              GW TO STREAM =  0.9990391    
                         PRECIPITATION =   0.000000                             PRECIPITATION =   0.000000    
                                RUNOFF =   0.000000                                    RUNOFF =   0.000000    
                CONSTANT CONCENTRATION =   0.000000                    CONSTANT CONCENTRATION =   0.000000    
                             MASS GAIN =   0.000000                                 MASS GAIN =   0.000000    
                                         -------------------                                    --------------
                              TOTAL IN =   344.9895                                  TOTAL IN =   9.324039    

                   STREAM ACCUMULATION =  0.4403013E-03                   STREAM ACCUMULATION =  0.1129499E-04
                        STREAM OUTFLOW =   344.9892                            STREAM OUTFLOW =   9.324030    
                          STREAM TO GW =   0.000000                              STREAM TO GW =   0.000000    
                CONSTANT CONCENTRATION =   0.000000                    CONSTANT CONCENTRATION =   0.000000    
                           EVAPORATION =   0.000000                               EVAPORATION =   0.000000    
                             MASS LOSS =   0.000000                                 MASS LOSS =   0.000000    
                                         -------------------                                    --------------
                             TOTAL OUT =   344.9897                                 TOTAL OUT =   9.324041    

                        NET (IN - OUT) = -0.1525879E-03                        NET (IN - OUT) = -0.2861023E-05
                 DISCREPANCY (PERCENT) = -0.4422971E-04                 DISCREPANCY (PERCENT) = -0.3068437E-04
                                              FLOW ERR (QIN-QOUT-DV) = -0.9536743E-06 [L3/T]




 >>>>>>>>>>>>>>>>>>>>>>>>>>>>>>>>>>>>>>>>>>>>>>>>>>>>>>>FOR COMPONENT NO. 01<<<<<<<<<<<<<<<<<<<<<<<<<<<<<<<<<<<<<<<<<<<<<<<<<<<<<<<


                                            -------------------------------------------
                                                      TRANSPORT STEP NO.   37
                                            -------------------------------------------

 TOTAL ELAPSED TIME SINCE BEGINNING OF SIMULATION =   6660.000    D   
 .....................................................................

                     CUMULATIVE MASS BUDGETS AT END OF TRANSPORT STEP   37, TIME STEP    1, STRESS PERIOD    1
                     -----------------------------------------------------------------------------------------

                                                             IN                           OUT
                                                      ----------------             ----------------
                               CONSTANT CONCENTRATION:    0.000000                    0.000000    
                                        CONSTANT HEAD:    83.13161                   -46.16823    
                                               STREAM:    0.000000                   -36.96444    
                               MASS STOR (FLOW MODEL):   0.1123055E-02              -0.1520617E-07
                                MASS STORAGE (SOLUTE):    0.000000                    0.000000    
                            ---------------------------------------------------------------------------
                                              [TOTAL]:    83.13274     KG            -83.13267     KG  

                                                          NET (IN - OUT):   0.6866455E-04
                                                   DISCREPANCY (PERCENT):   0.8259631E-04
     2 CALLS TO GCG PACKAGE FOR TRANSPORT TIME STEP    38 IN FLOW TIME STEP     1 STRESS PERIOD     1
      2 TOTAL ITERATIONS
  MAXIMUM CONCENTRATION CHANGES FOR EACH ITERATION:
  MAX. CHANGE LAYER,ROW,COL MAX. CHANGE LAYER,ROW,COL MAX. CHANGE LAYER,ROW,COL MAX. CHANGE LAYER,ROW,COL MAX. CHANGE LAYER,ROW,COL
 ------------------------------------------------------------------------------------------------------------------------------------
    0.000     (  1,  1,  1)   0.000     (  1,  1,  1)


                     STREAM MASS BUDGETS AT END OF TRANSPORT STEP   38, TIME STEP    1, STRESS PERIOD    1 FOR COMPONENT   1
                     -------------------------------------------------------------------------------------------------------

                                         CUMULATIVE MASS [M]                                     MASS FOR THIS TIME STEP [M]
                                         -------------------                                    --------------
                      STREAM DEPLETION =  0.3517124E-04                      STREAM DEPLETION =  0.3716302E-06
                      INFLOW TO STREAM =   316.3500                          INFLOW TO STREAM =   8.325000    
                          GW TO STREAM =   37.96347                              GW TO STREAM =  0.9990391    
                         PRECIPITATION =   0.000000                             PRECIPITATION =   0.000000    
                                RUNOFF =   0.000000                                    RUNOFF =   0.000000    
                CONSTANT CONCENTRATION =   0.000000                    CONSTANT CONCENTRATION =   0.000000    
                             MASS GAIN =   0.000000                                 MASS GAIN =   0.000000    
                                         -------------------                                    --------------
                              TOTAL IN =   354.3135                                  TOTAL IN =   9.324039    

                   STREAM ACCUMULATION =  0.4515901E-03                   STREAM ACCUMULATION =  0.1128879E-04
                        STREAM OUTFLOW =   354.3133                            STREAM OUTFLOW =   9.324030    
                          STREAM TO GW =   0.000000                              STREAM TO GW =   0.000000    
                CONSTANT CONCENTRATION =   0.000000                    CONSTANT CONCENTRATION =   0.000000    
                           EVAPORATION =   0.000000                               EVAPORATION =   0.000000    
                             MASS LOSS =   0.000000                                 MASS LOSS =   0.000000    
                                         -------------------                                    --------------
                             TOTAL OUT =   354.3137                                 TOTAL OUT =   9.324041    

                        NET (IN - OUT) = -0.1831055E-03                        NET (IN - OUT) = -0.2861023E-05
                 DISCREPANCY (PERCENT) = -0.5167892E-04                 DISCREPANCY (PERCENT) = -0.3068437E-04
                                              FLOW ERR (QIN-QOUT-DV) = -0.9536743E-06 [L3/T]




 >>>>>>>>>>>>>>>>>>>>>>>>>>>>>>>>>>>>>>>>>>>>>>>>>>>>>>>FOR COMPONENT NO. 01<<<<<<<<<<<<<<<<<<<<<<<<<<<<<<<<<<<<<<<<<<<<<<<<<<<<<<<


                                            -------------------------------------------
                                                      TRANSPORT STEP NO.   38
                                            -------------------------------------------

 TOTAL ELAPSED TIME SINCE BEGINNING OF SIMULATION =   6840.000    D   
 .....................................................................

                     CUMULATIVE MASS BUDGETS AT END OF TRANSPORT STEP   38, TIME STEP    1, STRESS PERIOD    1
                     -----------------------------------------------------------------------------------------

                                                             IN                           OUT
                                                      ----------------             ----------------
                               CONSTANT CONCENTRATION:    0.000000                    0.000000    
                                        CONSTANT HEAD:    85.37842                   -47.41602    
                                               STREAM:    0.000000                   -37.96347    
                               MASS STOR (FLOW MODEL):   0.1153408E-02              -0.1561715E-07
                                MASS STORAGE (SOLUTE):    0.000000                    0.000000    
                            ---------------------------------------------------------------------------
                                              [TOTAL]:    85.37957     KG            -85.37950     KG  

                                                          NET (IN - OUT):   0.6866455E-04
                                                   DISCREPANCY (PERCENT):   0.8042273E-04
     2 CALLS TO GCG PACKAGE FOR TRANSPORT TIME STEP    39 IN FLOW TIME STEP     1 STRESS PERIOD     1
      2 TOTAL ITERATIONS
  MAXIMUM CONCENTRATION CHANGES FOR EACH ITERATION:
  MAX. CHANGE LAYER,ROW,COL MAX. CHANGE LAYER,ROW,COL MAX. CHANGE LAYER,ROW,COL MAX. CHANGE LAYER,ROW,COL MAX. CHANGE LAYER,ROW,COL
 ------------------------------------------------------------------------------------------------------------------------------------
    0.000     (  1,  1,  1)   0.000     (  1,  1,  1)


                     STREAM MASS BUDGETS AT END OF TRANSPORT STEP   39, TIME STEP    1, STRESS PERIOD    1 FOR COMPONENT   1
                     -------------------------------------------------------------------------------------------------------

                                         CUMULATIVE MASS [M]                                     MASS FOR THIS TIME STEP [M]
                                         -------------------                                    --------------
                      STREAM DEPLETION =  0.3552461E-04                      STREAM DEPLETION =  0.3533751E-06
                      INFLOW TO STREAM =   324.6750                          INFLOW TO STREAM =   8.325000    
                          GW TO STREAM =   38.96251                              GW TO STREAM =  0.9990391    
                         PRECIPITATION =   0.000000                             PRECIPITATION =   0.000000    
                                RUNOFF =   0.000000                                    RUNOFF =   0.000000    
                CONSTANT CONCENTRATION =   0.000000                    CONSTANT CONCENTRATION =   0.000000    
                             MASS GAIN =   0.000000                                 MASS GAIN =   0.000000    
                                         -------------------                                    --------------
                              TOTAL IN =   363.6376                                  TOTAL IN =   9.324039    

                   STREAM ACCUMULATION =  0.4628699E-03                   STREAM ACCUMULATION =  0.1127973E-04
                        STREAM OUTFLOW =   363.6373                            STREAM OUTFLOW =   9.324030    
                          STREAM TO GW =   0.000000                              STREAM TO GW =   0.000000    
                CONSTANT CONCENTRATION =   0.000000                    CONSTANT CONCENTRATION =   0.000000    
                           EVAPORATION =   0.000000                               EVAPORATION =   0.000000    
                             MASS LOSS =   0.000000                                 MASS LOSS =   0.000000    
                                         -------------------                                    --------------
                             TOTAL OUT =   363.6378                                 TOTAL OUT =   9.324041    

                        NET (IN - OUT) = -0.1525879E-03                        NET (IN - OUT) = -0.2861023E-05
                 DISCREPANCY (PERCENT) = -0.4196152E-04                 DISCREPANCY (PERCENT) = -0.3068437E-04
                                              FLOW ERR (QIN-QOUT-DV) = -0.9536743E-06 [L3/T]




 >>>>>>>>>>>>>>>>>>>>>>>>>>>>>>>>>>>>>>>>>>>>>>>>>>>>>>>FOR COMPONENT NO. 01<<<<<<<<<<<<<<<<<<<<<<<<<<<<<<<<<<<<<<<<<<<<<<<<<<<<<<<


                                            -------------------------------------------
                                                      TRANSPORT STEP NO.   39
                                            -------------------------------------------

 TOTAL ELAPSED TIME SINCE BEGINNING OF SIMULATION =   7020.000    D   
 .....................................................................

                     CUMULATIVE MASS BUDGETS AT END OF TRANSPORT STEP   39, TIME STEP    1, STRESS PERIOD    1
                     -----------------------------------------------------------------------------------------

                                                             IN                           OUT
                                                      ----------------             ----------------
                               CONSTANT CONCENTRATION:    0.000000                    0.000000    
                                        CONSTANT HEAD:    87.62522                   -48.66381    
                                               STREAM:    0.000000                   -38.96251    
                               MASS STOR (FLOW MODEL):   0.1183761E-02              -0.1602813E-07
                                MASS STORAGE (SOLUTE):    0.000000                    0.000000    
                            ---------------------------------------------------------------------------
                                              [TOTAL]:    87.62640     KG            -87.62633     KG  

                                                          NET (IN - OUT):   0.7629395E-04
                                                   DISCREPANCY (PERCENT):   0.8706734E-04
     2 CALLS TO GCG PACKAGE FOR TRANSPORT TIME STEP    40 IN FLOW TIME STEP     1 STRESS PERIOD     1
      2 TOTAL ITERATIONS
  MAXIMUM CONCENTRATION CHANGES FOR EACH ITERATION:
  MAX. CHANGE LAYER,ROW,COL MAX. CHANGE LAYER,ROW,COL MAX. CHANGE LAYER,ROW,COL MAX. CHANGE LAYER,ROW,COL MAX. CHANGE LAYER,ROW,COL
 ------------------------------------------------------------------------------------------------------------------------------------
    0.000     (  1,  1,  1)   0.000     (  1,  1,  1)


                     STREAM MASS BUDGETS AT END OF TRANSPORT STEP   40, TIME STEP    1, STRESS PERIOD    1 FOR COMPONENT   1
                     -------------------------------------------------------------------------------------------------------

                                         CUMULATIVE MASS [M]                                     MASS FOR THIS TIME STEP [M]
                                         -------------------                                    --------------
                      STREAM DEPLETION =  0.3586238E-04                      STREAM DEPLETION =  0.3377709E-06
                      INFLOW TO STREAM =   333.0001                          INFLOW TO STREAM =   8.325000    
                          GW TO STREAM =   39.96155                              GW TO STREAM =  0.9990391    
                         PRECIPITATION =   0.000000                             PRECIPITATION =   0.000000    
                                RUNOFF =   0.000000                                    RUNOFF =   0.000000    
                CONSTANT CONCENTRATION =   0.000000                    CONSTANT CONCENTRATION =   0.000000    
                             MASS GAIN =   0.000000                                 MASS GAIN =   0.000000    
                                         -------------------                                    --------------
                              TOTAL IN =   372.9616                                  TOTAL IN =   9.324039    

                   STREAM ACCUMULATION =  0.4741432E-03                   STREAM ACCUMULATION =  0.1127337E-04
                        STREAM OUTFLOW =   372.9613                            STREAM OUTFLOW =   9.324030    
                          STREAM TO GW =   0.000000                              STREAM TO GW =   0.000000    
                CONSTANT CONCENTRATION =   0.000000                    CONSTANT CONCENTRATION =   0.000000    
                           EVAPORATION =   0.000000                               EVAPORATION =   0.000000    
                             MASS LOSS =   0.000000                                 MASS LOSS =   0.000000    
                                         -------------------                                    --------------
                             TOTAL OUT =   372.9618                                 TOTAL OUT =   9.324041    

                        NET (IN - OUT) = -0.1831055E-03                        NET (IN - OUT) = -0.2861023E-05
                 DISCREPANCY (PERCENT) = -0.4909498E-04                 DISCREPANCY (PERCENT) = -0.3068437E-04
                                              FLOW ERR (QIN-QOUT-DV) = -0.9536743E-06 [L3/T]




 >>>>>>>>>>>>>>>>>>>>>>>>>>>>>>>>>>>>>>>>>>>>>>>>>>>>>>>FOR COMPONENT NO. 01<<<<<<<<<<<<<<<<<<<<<<<<<<<<<<<<<<<<<<<<<<<<<<<<<<<<<<<


                                            -------------------------------------------
                                                      TRANSPORT STEP NO.   40
                                            -------------------------------------------

 TOTAL ELAPSED TIME SINCE BEGINNING OF SIMULATION =   7200.000    D   
 .....................................................................

                     CUMULATIVE MASS BUDGETS AT END OF TRANSPORT STEP   40, TIME STEP    1, STRESS PERIOD    1
                     -----------------------------------------------------------------------------------------

                                                             IN                           OUT
                                                      ----------------             ----------------
                               CONSTANT CONCENTRATION:    0.000000                    0.000000    
                                        CONSTANT HEAD:    89.87202                   -49.91161    
                                               STREAM:    0.000000                   -39.96155    
                               MASS STOR (FLOW MODEL):   0.1214114E-02              -0.1643911E-07
                                MASS STORAGE (SOLUTE):    0.000000                    0.000000    
                            ---------------------------------------------------------------------------
                                              [TOTAL]:    89.87324     KG            -89.87315     KG  

                                                          NET (IN - OUT):   0.8392334E-04
                                                   DISCREPANCY (PERCENT):   0.9337972E-04
     2 CALLS TO GCG PACKAGE FOR TRANSPORT TIME STEP    41 IN FLOW TIME STEP     1 STRESS PERIOD     1
      2 TOTAL ITERATIONS
  MAXIMUM CONCENTRATION CHANGES FOR EACH ITERATION:
  MAX. CHANGE LAYER,ROW,COL MAX. CHANGE LAYER,ROW,COL MAX. CHANGE LAYER,ROW,COL MAX. CHANGE LAYER,ROW,COL MAX. CHANGE LAYER,ROW,COL
 ------------------------------------------------------------------------------------------------------------------------------------
    0.000     (  1,  1,  1)   0.000     (  1,  1,  1)


                     STREAM MASS BUDGETS AT END OF TRANSPORT STEP   41, TIME STEP    1, STRESS PERIOD    1 FOR COMPONENT   1
                     -------------------------------------------------------------------------------------------------------

                                         CUMULATIVE MASS [M]                                     MASS FOR THIS TIME STEP [M]
                                         -------------------                                    --------------
                      STREAM DEPLETION =  0.3618256E-04                      STREAM DEPLETION =  0.3201719E-06
                      INFLOW TO STREAM =   341.3251                          INFLOW TO STREAM =   8.325000    
                          GW TO STREAM =   40.96059                              GW TO STREAM =  0.9990391    
                         PRECIPITATION =   0.000000                             PRECIPITATION =   0.000000    
                                RUNOFF =   0.000000                                    RUNOFF =   0.000000    
                CONSTANT CONCENTRATION =   0.000000                    CONSTANT CONCENTRATION =   0.000000    
                             MASS GAIN =   0.000000                                 MASS GAIN =   0.000000    
                                         -------------------                                    --------------
                              TOTAL IN =   382.2857                                  TOTAL IN =   9.324039    

                   STREAM ACCUMULATION =  0.4854090E-03                   STREAM ACCUMULATION =  0.1126570E-04
                        STREAM OUTFLOW =   382.2854                            STREAM OUTFLOW =   9.324030    
                          STREAM TO GW =   0.000000                              STREAM TO GW =   0.000000    
                CONSTANT CONCENTRATION =   0.000000                    CONSTANT CONCENTRATION =   0.000000    
                           EVAPORATION =   0.000000                               EVAPORATION =   0.000000    
                             MASS LOSS =   0.000000                                 MASS LOSS =   0.000000    
                                         -------------------                                    --------------
                             TOTAL OUT =   382.2859                                 TOTAL OUT =   9.324041    

                        NET (IN - OUT) = -0.1525879E-03                        NET (IN - OUT) = -0.2861023E-05
                 DISCREPANCY (PERCENT) = -0.3991462E-04                 DISCREPANCY (PERCENT) = -0.3068437E-04
                                              FLOW ERR (QIN-QOUT-DV) = -0.9536743E-06 [L3/T]




 >>>>>>>>>>>>>>>>>>>>>>>>>>>>>>>>>>>>>>>>>>>>>>>>>>>>>>>FOR COMPONENT NO. 01<<<<<<<<<<<<<<<<<<<<<<<<<<<<<<<<<<<<<<<<<<<<<<<<<<<<<<<


                                            -------------------------------------------
                                                      TRANSPORT STEP NO.   41
                                            -------------------------------------------

 TOTAL ELAPSED TIME SINCE BEGINNING OF SIMULATION =   7380.000    D   
 .....................................................................

                     CUMULATIVE MASS BUDGETS AT END OF TRANSPORT STEP   41, TIME STEP    1, STRESS PERIOD    1
                     -----------------------------------------------------------------------------------------

                                                             IN                           OUT
                                                      ----------------             ----------------
                               CONSTANT CONCENTRATION:    0.000000                    0.000000    
                                        CONSTANT HEAD:    92.11883                   -51.15940    
                                               STREAM:    0.000000                   -40.96059    
                               MASS STOR (FLOW MODEL):   0.1244467E-02              -0.1685009E-07
                                MASS STORAGE (SOLUTE):    0.000000                    0.000000    
                            ---------------------------------------------------------------------------
                                              [TOTAL]:    92.12007     KG            -92.11999     KG  

                                                          NET (IN - OUT):   0.8392334E-04
                                                   DISCREPANCY (PERCENT):   0.9110217E-04
     2 CALLS TO GCG PACKAGE FOR TRANSPORT TIME STEP    42 IN FLOW TIME STEP     1 STRESS PERIOD     1
      2 TOTAL ITERATIONS
  MAXIMUM CONCENTRATION CHANGES FOR EACH ITERATION:
  MAX. CHANGE LAYER,ROW,COL MAX. CHANGE LAYER,ROW,COL MAX. CHANGE LAYER,ROW,COL MAX. CHANGE LAYER,ROW,COL MAX. CHANGE LAYER,ROW,COL
 ------------------------------------------------------------------------------------------------------------------------------------
    0.000     (  1,  1,  1)   0.000     (  1,  1,  1)


                     STREAM MASS BUDGETS AT END OF TRANSPORT STEP   42, TIME STEP    1, STRESS PERIOD    1 FOR COMPONENT   1
                     -------------------------------------------------------------------------------------------------------

                                         CUMULATIVE MASS [M]                                     MASS FOR THIS TIME STEP [M]
                                         -------------------                                    --------------
                      STREAM DEPLETION =  0.3648753E-04                      STREAM DEPLETION =  0.3049763E-06
                      INFLOW TO STREAM =   349.6501                          INFLOW TO STREAM =   8.325000    
                          GW TO STREAM =   41.95963                              GW TO STREAM =  0.9990391    
                         PRECIPITATION =   0.000000                             PRECIPITATION =   0.000000    
                                RUNOFF =   0.000000                                    RUNOFF =   0.000000    
                CONSTANT CONCENTRATION =   0.000000                    CONSTANT CONCENTRATION =   0.000000    
                             MASS GAIN =   0.000000                                 MASS GAIN =   0.000000    
                                         -------------------                                    --------------
                              TOTAL IN =   391.6097                                  TOTAL IN =   9.324039    

                   STREAM ACCUMULATION =  0.4966695E-03                   STREAM ACCUMULATION =  0.1126053E-04
                        STREAM OUTFLOW =   391.6094                            STREAM OUTFLOW =   9.324030    
                          STREAM TO GW =   0.000000                              STREAM TO GW =   0.000000    
                CONSTANT CONCENTRATION =   0.000000                    CONSTANT CONCENTRATION =   0.000000    
                           EVAPORATION =   0.000000                               EVAPORATION =   0.000000    
                             MASS LOSS =   0.000000                                 MASS LOSS =   0.000000    
                                         -------------------                                    --------------
                             TOTAL OUT =   391.6099                                 TOTAL OUT =   9.324041    

                        NET (IN - OUT) = -0.1525879E-03                        NET (IN - OUT) = -0.2861023E-05
                 DISCREPANCY (PERCENT) = -0.3896427E-04                 DISCREPANCY (PERCENT) = -0.3068437E-04
                                              FLOW ERR (QIN-QOUT-DV) = -0.9536743E-06 [L3/T]




 >>>>>>>>>>>>>>>>>>>>>>>>>>>>>>>>>>>>>>>>>>>>>>>>>>>>>>>FOR COMPONENT NO. 01<<<<<<<<<<<<<<<<<<<<<<<<<<<<<<<<<<<<<<<<<<<<<<<<<<<<<<<


                                            -------------------------------------------
                                                      TRANSPORT STEP NO.   42
                                            -------------------------------------------

 TOTAL ELAPSED TIME SINCE BEGINNING OF SIMULATION =   7560.000    D   
 .....................................................................

                     CUMULATIVE MASS BUDGETS AT END OF TRANSPORT STEP   42, TIME STEP    1, STRESS PERIOD    1
                     -----------------------------------------------------------------------------------------

                                                             IN                           OUT
                                                      ----------------             ----------------
                               CONSTANT CONCENTRATION:    0.000000                    0.000000    
                                        CONSTANT HEAD:    94.36563                   -52.40719    
                                               STREAM:    0.000000                   -41.95963    
                               MASS STOR (FLOW MODEL):   0.1274819E-02              -0.1726106E-07
                                MASS STORAGE (SOLUTE):    0.000000                    0.000000    
                            ---------------------------------------------------------------------------
                                              [TOTAL]:    94.36691     KG            -94.36682     KG  

                                                          NET (IN - OUT):   0.8392334E-04
                                                   DISCREPANCY (PERCENT):   0.8893305E-04
     2 CALLS TO GCG PACKAGE FOR TRANSPORT TIME STEP    43 IN FLOW TIME STEP     1 STRESS PERIOD     1
      2 TOTAL ITERATIONS
  MAXIMUM CONCENTRATION CHANGES FOR EACH ITERATION:
  MAX. CHANGE LAYER,ROW,COL MAX. CHANGE LAYER,ROW,COL MAX. CHANGE LAYER,ROW,COL MAX. CHANGE LAYER,ROW,COL MAX. CHANGE LAYER,ROW,COL
 ------------------------------------------------------------------------------------------------------------------------------------
    0.000     (  1,  1,  1)   0.000     (  1,  1,  1)


                     STREAM MASS BUDGETS AT END OF TRANSPORT STEP   43, TIME STEP    1, STRESS PERIOD    1 FOR COMPONENT   1
                     -------------------------------------------------------------------------------------------------------

                                         CUMULATIVE MASS [M]                                     MASS FOR THIS TIME STEP [M]
                                         -------------------                                    --------------
                      STREAM DEPLETION =  0.3677666E-04                      STREAM DEPLETION =  0.2891234E-06
                      INFLOW TO STREAM =   357.9751                          INFLOW TO STREAM =   8.325000    
                          GW TO STREAM =   42.95867                              GW TO STREAM =  0.9990391    
                         PRECIPITATION =   0.000000                             PRECIPITATION =   0.000000    
                                RUNOFF =   0.000000                                    RUNOFF =   0.000000    
                CONSTANT CONCENTRATION =   0.000000                    CONSTANT CONCENTRATION =   0.000000    
                             MASS GAIN =   0.000000                                 MASS GAIN =   0.000000    
                                         -------------------                                    --------------
                              TOTAL IN =   400.9338                                  TOTAL IN =   9.324039    

                   STREAM ACCUMULATION =  0.5079248E-03                   STREAM ACCUMULATION =  0.1125533E-04
                        STREAM OUTFLOW =   400.9334                            STREAM OUTFLOW =   9.324030    
                          STREAM TO GW =   0.000000                              STREAM TO GW =   0.000000    
                CONSTANT CONCENTRATION =   0.000000                    CONSTANT CONCENTRATION =   0.000000    
                           EVAPORATION =   0.000000                               EVAPORATION =   0.000000    
                             MASS LOSS =   0.000000                                 MASS LOSS =   0.000000    
                                         -------------------                                    --------------
                             TOTAL OUT =   400.9340                                 TOTAL OUT =   9.324041    

                        NET (IN - OUT) = -0.1525879E-03                        NET (IN - OUT) = -0.2861023E-05
                 DISCREPANCY (PERCENT) = -0.3805812E-04                 DISCREPANCY (PERCENT) = -0.3068437E-04
                                              FLOW ERR (QIN-QOUT-DV) = -0.9536743E-06 [L3/T]




 >>>>>>>>>>>>>>>>>>>>>>>>>>>>>>>>>>>>>>>>>>>>>>>>>>>>>>>FOR COMPONENT NO. 01<<<<<<<<<<<<<<<<<<<<<<<<<<<<<<<<<<<<<<<<<<<<<<<<<<<<<<<


                                            -------------------------------------------
                                                      TRANSPORT STEP NO.   43
                                            -------------------------------------------

 TOTAL ELAPSED TIME SINCE BEGINNING OF SIMULATION =   7740.000    D   
 .....................................................................

                     CUMULATIVE MASS BUDGETS AT END OF TRANSPORT STEP   43, TIME STEP    1, STRESS PERIOD    1
                     -----------------------------------------------------------------------------------------

                                                             IN                           OUT
                                                      ----------------             ----------------
                               CONSTANT CONCENTRATION:    0.000000                    0.000000    
                                        CONSTANT HEAD:    96.61243                   -53.65498    
                                               STREAM:    0.000000                   -42.95867    
                               MASS STOR (FLOW MODEL):   0.1305172E-02              -0.1767204E-07
                                MASS STORAGE (SOLUTE):    0.000000                    0.000000    
                            ---------------------------------------------------------------------------
                                              [TOTAL]:    96.61374     KG            -96.61365     KG  

                                                          NET (IN - OUT):   0.9155273E-04
                                                   DISCREPANCY (PERCENT):   0.9476166E-04
     2 CALLS TO GCG PACKAGE FOR TRANSPORT TIME STEP    44 IN FLOW TIME STEP     1 STRESS PERIOD     1
      2 TOTAL ITERATIONS
  MAXIMUM CONCENTRATION CHANGES FOR EACH ITERATION:
  MAX. CHANGE LAYER,ROW,COL MAX. CHANGE LAYER,ROW,COL MAX. CHANGE LAYER,ROW,COL MAX. CHANGE LAYER,ROW,COL MAX. CHANGE LAYER,ROW,COL
 ------------------------------------------------------------------------------------------------------------------------------------
    0.000     (  1,  1,  1)   0.000     (  1,  1,  1)


                     STREAM MASS BUDGETS AT END OF TRANSPORT STEP   44, TIME STEP    1, STRESS PERIOD    1 FOR COMPONENT   1
                     -------------------------------------------------------------------------------------------------------

                                         CUMULATIVE MASS [M]                                     MASS FOR THIS TIME STEP [M]
                                         -------------------                                    --------------
                      STREAM DEPLETION =  0.3705034E-04                      STREAM DEPLETION =  0.2736807E-06
                      INFLOW TO STREAM =   366.3001                          INFLOW TO STREAM =   8.325000    
                          GW TO STREAM =   43.95771                              GW TO STREAM =  0.9990391    
                         PRECIPITATION =   0.000000                             PRECIPITATION =   0.000000    
                                RUNOFF =   0.000000                                    RUNOFF =   0.000000    
                CONSTANT CONCENTRATION =   0.000000                    CONSTANT CONCENTRATION =   0.000000    
                             MASS GAIN =   0.000000                                 MASS GAIN =   0.000000    
                                         -------------------                                    --------------
                              TOTAL IN =   410.2578                                  TOTAL IN =   9.324039    

                   STREAM ACCUMULATION =  0.5191754E-03                   STREAM ACCUMULATION =  0.1125061E-04
                        STREAM OUTFLOW =   410.2575                            STREAM OUTFLOW =   9.324030    
                          STREAM TO GW =   0.000000                              STREAM TO GW =   0.000000    
                CONSTANT CONCENTRATION =   0.000000                    CONSTANT CONCENTRATION =   0.000000    
                           EVAPORATION =   0.000000                               EVAPORATION =   0.000000    
                             MASS LOSS =   0.000000                                 MASS LOSS =   0.000000    
                                         -------------------                                    --------------
                             TOTAL OUT =   410.2580                                 TOTAL OUT =   9.324041    

                        NET (IN - OUT) = -0.1525879E-03                        NET (IN - OUT) = -0.2861023E-05
                 DISCREPANCY (PERCENT) = -0.3719316E-04                 DISCREPANCY (PERCENT) = -0.3068437E-04
                                              FLOW ERR (QIN-QOUT-DV) = -0.9536743E-06 [L3/T]




 >>>>>>>>>>>>>>>>>>>>>>>>>>>>>>>>>>>>>>>>>>>>>>>>>>>>>>>FOR COMPONENT NO. 01<<<<<<<<<<<<<<<<<<<<<<<<<<<<<<<<<<<<<<<<<<<<<<<<<<<<<<<


                                            -------------------------------------------
                                                      TRANSPORT STEP NO.   44
                                            -------------------------------------------

 TOTAL ELAPSED TIME SINCE BEGINNING OF SIMULATION =   7920.000    D   
 .....................................................................

                     CUMULATIVE MASS BUDGETS AT END OF TRANSPORT STEP   44, TIME STEP    1, STRESS PERIOD    1
                     -----------------------------------------------------------------------------------------

                                                             IN                           OUT
                                                      ----------------             ----------------
                               CONSTANT CONCENTRATION:    0.000000                    0.000000    
                                        CONSTANT HEAD:    98.85924                   -54.90277    
                                               STREAM:    0.000000                   -43.95771    
                               MASS STOR (FLOW MODEL):   0.1335525E-02              -0.1808302E-07
                                MASS STORAGE (SOLUTE):    0.000000                    0.000000    
                            ---------------------------------------------------------------------------
                                              [TOTAL]:    98.86057     KG            -98.86047     KG  

                                                          NET (IN - OUT):   0.9918213E-04
                                                   DISCREPANCY (PERCENT):   0.1003253E-03
     2 CALLS TO GCG PACKAGE FOR TRANSPORT TIME STEP    45 IN FLOW TIME STEP     1 STRESS PERIOD     1
      2 TOTAL ITERATIONS
  MAXIMUM CONCENTRATION CHANGES FOR EACH ITERATION:
  MAX. CHANGE LAYER,ROW,COL MAX. CHANGE LAYER,ROW,COL MAX. CHANGE LAYER,ROW,COL MAX. CHANGE LAYER,ROW,COL MAX. CHANGE LAYER,ROW,COL
 ------------------------------------------------------------------------------------------------------------------------------------
    0.000     (  1,  1,  1)   0.000     (  1,  1,  1)


                     STREAM MASS BUDGETS AT END OF TRANSPORT STEP   45, TIME STEP    1, STRESS PERIOD    1 FOR COMPONENT   1
                     -------------------------------------------------------------------------------------------------------

                                         CUMULATIVE MASS [M]                                     MASS FOR THIS TIME STEP [M]
                                         -------------------                                    --------------
                      STREAM DEPLETION =  0.3730759E-04                      STREAM DEPLETION =  0.2572495E-06
                      INFLOW TO STREAM =   374.6251                          INFLOW TO STREAM =   8.325000    
                          GW TO STREAM =   44.95675                              GW TO STREAM =  0.9990391    
                         PRECIPITATION =   0.000000                             PRECIPITATION =   0.000000    
                                RUNOFF =   0.000000                                    RUNOFF =   0.000000    
                CONSTANT CONCENTRATION =   0.000000                    CONSTANT CONCENTRATION =   0.000000    
                             MASS GAIN =   0.000000                                 MASS GAIN =   0.000000    
                                         -------------------                                    --------------
                              TOTAL IN =   419.5819                                  TOTAL IN =   9.324039    

                   STREAM ACCUMULATION =  0.5304209E-03                   STREAM ACCUMULATION =  0.1124546E-04
                        STREAM OUTFLOW =   419.5815                            STREAM OUTFLOW =   9.324030    
                          STREAM TO GW =   0.000000                              STREAM TO GW =   0.000000    
                CONSTANT CONCENTRATION =   0.000000                    CONSTANT CONCENTRATION =   0.000000    
                           EVAPORATION =   0.000000                               EVAPORATION =   0.000000    
                             MASS LOSS =   0.000000                                 MASS LOSS =   0.000000    
                                         -------------------                                    --------------
                             TOTAL OUT =   419.5820                                 TOTAL OUT =   9.324041    

                        NET (IN - OUT) = -0.1220703E-03                        NET (IN - OUT) = -0.2861023E-05
                 DISCREPANCY (PERCENT) = -0.2909332E-04                 DISCREPANCY (PERCENT) = -0.3068437E-04
                                              FLOW ERR (QIN-QOUT-DV) = -0.9536743E-06 [L3/T]




 >>>>>>>>>>>>>>>>>>>>>>>>>>>>>>>>>>>>>>>>>>>>>>>>>>>>>>>FOR COMPONENT NO. 01<<<<<<<<<<<<<<<<<<<<<<<<<<<<<<<<<<<<<<<<<<<<<<<<<<<<<<<


                                            -------------------------------------------
                                                      TRANSPORT STEP NO.   45
                                            -------------------------------------------

 TOTAL ELAPSED TIME SINCE BEGINNING OF SIMULATION =   8100.000    D   
 .....................................................................

                     CUMULATIVE MASS BUDGETS AT END OF TRANSPORT STEP   45, TIME STEP    1, STRESS PERIOD    1
                     -----------------------------------------------------------------------------------------

                                                             IN                           OUT
                                                      ----------------             ----------------
                               CONSTANT CONCENTRATION:    0.000000                    0.000000    
                                        CONSTANT HEAD:    101.1060                   -56.15056    
                                               STREAM:    0.000000                   -44.95675    
                               MASS STOR (FLOW MODEL):   0.1365878E-02              -0.1849400E-07
                                MASS STORAGE (SOLUTE):    0.000000                    0.000000    
                            ---------------------------------------------------------------------------
                                              [TOTAL]:    101.1074     KG            -101.1073     KG  

                                                          NET (IN - OUT):   0.9918213E-04
                                                   DISCREPANCY (PERCENT):   0.9809585E-04
     2 CALLS TO GCG PACKAGE FOR TRANSPORT TIME STEP    46 IN FLOW TIME STEP     1 STRESS PERIOD     1
      2 TOTAL ITERATIONS
  MAXIMUM CONCENTRATION CHANGES FOR EACH ITERATION:
  MAX. CHANGE LAYER,ROW,COL MAX. CHANGE LAYER,ROW,COL MAX. CHANGE LAYER,ROW,COL MAX. CHANGE LAYER,ROW,COL MAX. CHANGE LAYER,ROW,COL
 ------------------------------------------------------------------------------------------------------------------------------------
    0.000     (  1,  1,  1)   0.000     (  1,  1,  1)


                     STREAM MASS BUDGETS AT END OF TRANSPORT STEP   46, TIME STEP    1, STRESS PERIOD    1 FOR COMPONENT   1
                     -------------------------------------------------------------------------------------------------------

                                         CUMULATIVE MASS [M]                                     MASS FOR THIS TIME STEP [M]
                                         -------------------                                    --------------
                      STREAM DEPLETION =  0.3754815E-04                      STREAM DEPLETION =  0.2405619E-06
                      INFLOW TO STREAM =   382.9501                          INFLOW TO STREAM =   8.325000    
                          GW TO STREAM =   45.95578                              GW TO STREAM =  0.9990391    
                         PRECIPITATION =   0.000000                             PRECIPITATION =   0.000000    
                                RUNOFF =   0.000000                                    RUNOFF =   0.000000    
                CONSTANT CONCENTRATION =   0.000000                    CONSTANT CONCENTRATION =   0.000000    
                             MASS GAIN =   0.000000                                 MASS GAIN =   0.000000    
                                         -------------------                                    --------------
                              TOTAL IN =   428.9059                                  TOTAL IN =   9.324039    

                   STREAM ACCUMULATION =  0.5416609E-03                   STREAM ACCUMULATION =  0.1124004E-04
                        STREAM OUTFLOW =   428.9055                            STREAM OUTFLOW =   9.324030    
                          STREAM TO GW =   0.000000                              STREAM TO GW =   0.000000    
                CONSTANT CONCENTRATION =   0.000000                    CONSTANT CONCENTRATION =   0.000000    
                           EVAPORATION =   0.000000                               EVAPORATION =   0.000000    
                             MASS LOSS =   0.000000                                 MASS LOSS =   0.000000    
                                         -------------------                                    --------------
                             TOTAL OUT =   428.9061                                 TOTAL OUT =   9.324041    

                        NET (IN - OUT) = -0.1525879E-03                        NET (IN - OUT) = -0.2861023E-05
                 DISCREPANCY (PERCENT) = -0.3557607E-04                 DISCREPANCY (PERCENT) = -0.3068437E-04
                                              FLOW ERR (QIN-QOUT-DV) = -0.9536743E-06 [L3/T]




 >>>>>>>>>>>>>>>>>>>>>>>>>>>>>>>>>>>>>>>>>>>>>>>>>>>>>>>FOR COMPONENT NO. 01<<<<<<<<<<<<<<<<<<<<<<<<<<<<<<<<<<<<<<<<<<<<<<<<<<<<<<<


                                            -------------------------------------------
                                                      TRANSPORT STEP NO.   46
                                            -------------------------------------------

 TOTAL ELAPSED TIME SINCE BEGINNING OF SIMULATION =   8280.000    D   
 .....................................................................

                     CUMULATIVE MASS BUDGETS AT END OF TRANSPORT STEP   46, TIME STEP    1, STRESS PERIOD    1
                     -----------------------------------------------------------------------------------------

                                                             IN                           OUT
                                                      ----------------             ----------------
                               CONSTANT CONCENTRATION:    0.000000                    0.000000    
                                        CONSTANT HEAD:    103.3528                   -57.39835    
                                               STREAM:    0.000000                   -45.95578    
                               MASS STOR (FLOW MODEL):   0.1396231E-02              -0.1890498E-07
                                MASS STORAGE (SOLUTE):    0.000000                    0.000000    
                            ---------------------------------------------------------------------------
                                              [TOTAL]:    103.3542     KG            -103.3541     KG  

                                                          NET (IN - OUT):   0.9918213E-04
                                                   DISCREPANCY (PERCENT):   0.9596334E-04
     2 CALLS TO GCG PACKAGE FOR TRANSPORT TIME STEP    47 IN FLOW TIME STEP     1 STRESS PERIOD     1
      2 TOTAL ITERATIONS
  MAXIMUM CONCENTRATION CHANGES FOR EACH ITERATION:
  MAX. CHANGE LAYER,ROW,COL MAX. CHANGE LAYER,ROW,COL MAX. CHANGE LAYER,ROW,COL MAX. CHANGE LAYER,ROW,COL MAX. CHANGE LAYER,ROW,COL
 ------------------------------------------------------------------------------------------------------------------------------------
    0.000     (  1,  1,  1)   0.000     (  1,  1,  1)


                     STREAM MASS BUDGETS AT END OF TRANSPORT STEP   47, TIME STEP    1, STRESS PERIOD    1 FOR COMPONENT   1
                     -------------------------------------------------------------------------------------------------------

                                         CUMULATIVE MASS [M]                                     MASS FOR THIS TIME STEP [M]
                                         -------------------                                    --------------
                      STREAM DEPLETION =  0.3777142E-04                      STREAM DEPLETION =  0.2232779E-06
                      INFLOW TO STREAM =   391.2751                          INFLOW TO STREAM =   8.325000    
                          GW TO STREAM =   46.95482                              GW TO STREAM =  0.9990391    
                         PRECIPITATION =   0.000000                             PRECIPITATION =   0.000000    
                                RUNOFF =   0.000000                                    RUNOFF =   0.000000    
                CONSTANT CONCENTRATION =   0.000000                    CONSTANT CONCENTRATION =   0.000000    
                             MASS GAIN =   0.000000                                 MASS GAIN =   0.000000    
                                         -------------------                                    --------------
                              TOTAL IN =   438.2300                                  TOTAL IN =   9.324039    

                   STREAM ACCUMULATION =  0.5528953E-03                   STREAM ACCUMULATION =  0.1123444E-04
                        STREAM OUTFLOW =   438.2296                            STREAM OUTFLOW =   9.324030    
                          STREAM TO GW =   0.000000                              STREAM TO GW =   0.000000    
                CONSTANT CONCENTRATION =   0.000000                    CONSTANT CONCENTRATION =   0.000000    
                           EVAPORATION =   0.000000                               EVAPORATION =   0.000000    
                             MASS LOSS =   0.000000                                 MASS LOSS =   0.000000    
                                         -------------------                                    --------------
                             TOTAL OUT =   438.2301                                 TOTAL OUT =   9.324041    

                        NET (IN - OUT) = -0.1220703E-03                        NET (IN - OUT) = -0.2861023E-05
                 DISCREPANCY (PERCENT) = -0.2785530E-04                 DISCREPANCY (PERCENT) = -0.3068437E-04
                                              FLOW ERR (QIN-QOUT-DV) = -0.9536743E-06 [L3/T]




 >>>>>>>>>>>>>>>>>>>>>>>>>>>>>>>>>>>>>>>>>>>>>>>>>>>>>>>FOR COMPONENT NO. 01<<<<<<<<<<<<<<<<<<<<<<<<<<<<<<<<<<<<<<<<<<<<<<<<<<<<<<<


                                            -------------------------------------------
                                                      TRANSPORT STEP NO.   47
                                            -------------------------------------------

 TOTAL ELAPSED TIME SINCE BEGINNING OF SIMULATION =   8460.000    D   
 .....................................................................

                     CUMULATIVE MASS BUDGETS AT END OF TRANSPORT STEP   47, TIME STEP    1, STRESS PERIOD    1
                     -----------------------------------------------------------------------------------------

                                                             IN                           OUT
                                                      ----------------             ----------------
                               CONSTANT CONCENTRATION:    0.000000                    0.000000    
                                        CONSTANT HEAD:    105.5996                   -58.64614    
                                               STREAM:    0.000000                   -46.95482    
                               MASS STOR (FLOW MODEL):   0.1426584E-02              -0.1931595E-07
                                MASS STORAGE (SOLUTE):    0.000000                    0.000000    
                            ---------------------------------------------------------------------------
                                              [TOTAL]:    105.6011     KG            -105.6010     KG  

                                                          NET (IN - OUT):   0.1068115E-03
                                                   DISCREPANCY (PERCENT):   0.1011463E-03
     2 CALLS TO GCG PACKAGE FOR TRANSPORT TIME STEP    48 IN FLOW TIME STEP     1 STRESS PERIOD     1
      2 TOTAL ITERATIONS
  MAXIMUM CONCENTRATION CHANGES FOR EACH ITERATION:
  MAX. CHANGE LAYER,ROW,COL MAX. CHANGE LAYER,ROW,COL MAX. CHANGE LAYER,ROW,COL MAX. CHANGE LAYER,ROW,COL MAX. CHANGE LAYER,ROW,COL
 ------------------------------------------------------------------------------------------------------------------------------------
    0.000     (  1,  1,  1)   0.000     (  1,  1,  1)


                     STREAM MASS BUDGETS AT END OF TRANSPORT STEP   48, TIME STEP    1, STRESS PERIOD    1 FOR COMPONENT   1
                     -------------------------------------------------------------------------------------------------------

                                         CUMULATIVE MASS [M]                                     MASS FOR THIS TIME STEP [M]
                                         -------------------                                    --------------
                      STREAM DEPLETION =  0.3797666E-04                      STREAM DEPLETION =  0.2052361E-06
                      INFLOW TO STREAM =   399.6002                          INFLOW TO STREAM =   8.325000    
                          GW TO STREAM =   47.95386                              GW TO STREAM =  0.9990391    
                         PRECIPITATION =   0.000000                             PRECIPITATION =   0.000000    
                                RUNOFF =   0.000000                                    RUNOFF =   0.000000    
                CONSTANT CONCENTRATION =   0.000000                    CONSTANT CONCENTRATION =   0.000000    
                             MASS GAIN =   0.000000                                 MASS GAIN =   0.000000    
                                         -------------------                                    --------------
                              TOTAL IN =   447.5540                                  TOTAL IN =   9.324039    

                   STREAM ACCUMULATION =  0.5641233E-03                   STREAM ACCUMULATION =  0.1122799E-04
                        STREAM OUTFLOW =   447.5536                            STREAM OUTFLOW =   9.324030    
                          STREAM TO GW =   0.000000                              STREAM TO GW =   0.000000    
                CONSTANT CONCENTRATION =   0.000000                    CONSTANT CONCENTRATION =   0.000000    
                           EVAPORATION =   0.000000                               EVAPORATION =   0.000000    
                             MASS LOSS =   0.000000                                 MASS LOSS =   0.000000    
                                         -------------------                                    --------------
                             TOTAL OUT =   447.5542                                 TOTAL OUT =   9.324041    

                        NET (IN - OUT) = -0.1220703E-03                        NET (IN - OUT) = -0.2861023E-05
                 DISCREPANCY (PERCENT) = -0.2727498E-04                 DISCREPANCY (PERCENT) = -0.3068437E-04
                                              FLOW ERR (QIN-QOUT-DV) = -0.9536743E-06 [L3/T]




 >>>>>>>>>>>>>>>>>>>>>>>>>>>>>>>>>>>>>>>>>>>>>>>>>>>>>>>FOR COMPONENT NO. 01<<<<<<<<<<<<<<<<<<<<<<<<<<<<<<<<<<<<<<<<<<<<<<<<<<<<<<<


                                            -------------------------------------------
                                                      TRANSPORT STEP NO.   48
                                            -------------------------------------------

 TOTAL ELAPSED TIME SINCE BEGINNING OF SIMULATION =   8640.000    D   
 .....................................................................

                     CUMULATIVE MASS BUDGETS AT END OF TRANSPORT STEP   48, TIME STEP    1, STRESS PERIOD    1
                     -----------------------------------------------------------------------------------------

                                                             IN                           OUT
                                                      ----------------             ----------------
                               CONSTANT CONCENTRATION:    0.000000                    0.000000    
                                        CONSTANT HEAD:    107.8465                   -59.89394    
                                               STREAM:    0.000000                   -47.95386    
                               MASS STOR (FLOW MODEL):   0.1456936E-02              -0.1972693E-07
                                MASS STORAGE (SOLUTE):    0.000000                    0.000000    
                            ---------------------------------------------------------------------------
                                              [TOTAL]:    107.8479     KG            -107.8478     KG  

                                                          NET (IN - OUT):   0.1144409E-03
                                                   DISCREPANCY (PERCENT):   0.1061133E-03
     2 CALLS TO GCG PACKAGE FOR TRANSPORT TIME STEP    49 IN FLOW TIME STEP     1 STRESS PERIOD     1
      2 TOTAL ITERATIONS
  MAXIMUM CONCENTRATION CHANGES FOR EACH ITERATION:
  MAX. CHANGE LAYER,ROW,COL MAX. CHANGE LAYER,ROW,COL MAX. CHANGE LAYER,ROW,COL MAX. CHANGE LAYER,ROW,COL MAX. CHANGE LAYER,ROW,COL
 ------------------------------------------------------------------------------------------------------------------------------------
    0.000     (  1,  1,  1)   0.000     (  1,  1,  1)


                     STREAM MASS BUDGETS AT END OF TRANSPORT STEP   49, TIME STEP    1, STRESS PERIOD    1 FOR COMPONENT   1
                     -------------------------------------------------------------------------------------------------------

                                         CUMULATIVE MASS [M]                                     MASS FOR THIS TIME STEP [M]
                                         -------------------                                    --------------
                      STREAM DEPLETION =  0.3816492E-04                      STREAM DEPLETION =  0.1882616E-06
                      INFLOW TO STREAM =   407.9252                          INFLOW TO STREAM =   8.325000    
                          GW TO STREAM =   48.95290                              GW TO STREAM =  0.9990391    
                         PRECIPITATION =   0.000000                             PRECIPITATION =   0.000000    
                                RUNOFF =   0.000000                                    RUNOFF =   0.000000    
                CONSTANT CONCENTRATION =   0.000000                    CONSTANT CONCENTRATION =   0.000000    
                             MASS GAIN =   0.000000                                 MASS GAIN =   0.000000    
                                         -------------------                                    --------------
                              TOTAL IN =   456.8781                                  TOTAL IN =   9.324039    

                   STREAM ACCUMULATION =  0.5753461E-03                   STREAM ACCUMULATION =  0.1122285E-04
                        STREAM OUTFLOW =   456.8777                            STREAM OUTFLOW =   9.324030    
                          STREAM TO GW =   0.000000                              STREAM TO GW =   0.000000    
                CONSTANT CONCENTRATION =   0.000000                    CONSTANT CONCENTRATION =   0.000000    
                           EVAPORATION =   0.000000                               EVAPORATION =   0.000000    
                             MASS LOSS =   0.000000                                 MASS LOSS =   0.000000    
                                         -------------------                                    --------------
                             TOTAL OUT =   456.8782                                 TOTAL OUT =   9.324041    

                        NET (IN - OUT) = -0.1220703E-03                        NET (IN - OUT) = -0.2861023E-05
                 DISCREPANCY (PERCENT) = -0.2671835E-04                 DISCREPANCY (PERCENT) = -0.3068437E-04
                                              FLOW ERR (QIN-QOUT-DV) = -0.9536743E-06 [L3/T]




 >>>>>>>>>>>>>>>>>>>>>>>>>>>>>>>>>>>>>>>>>>>>>>>>>>>>>>>FOR COMPONENT NO. 01<<<<<<<<<<<<<<<<<<<<<<<<<<<<<<<<<<<<<<<<<<<<<<<<<<<<<<<


                                            -------------------------------------------
                                                      TRANSPORT STEP NO.   49
                                            -------------------------------------------

 TOTAL ELAPSED TIME SINCE BEGINNING OF SIMULATION =   8820.000    D   
 .....................................................................

                     CUMULATIVE MASS BUDGETS AT END OF TRANSPORT STEP   49, TIME STEP    1, STRESS PERIOD    1
                     -----------------------------------------------------------------------------------------

                                                             IN                           OUT
                                                      ----------------             ----------------
                               CONSTANT CONCENTRATION:    0.000000                    0.000000    
                                        CONSTANT HEAD:    110.0933                   -61.14173    
                                               STREAM:    0.000000                   -48.95290    
                               MASS STOR (FLOW MODEL):   0.1487289E-02              -0.2013791E-07
                                MASS STORAGE (SOLUTE):    0.000000                    0.000000    
                            ---------------------------------------------------------------------------
                                              [TOTAL]:    110.0947     KG            -110.0946     KG  

                                                          NET (IN - OUT):   0.1144409E-03
                                                   DISCREPANCY (PERCENT):   0.1039477E-03
     2 CALLS TO GCG PACKAGE FOR TRANSPORT TIME STEP    50 IN FLOW TIME STEP     1 STRESS PERIOD     1
      2 TOTAL ITERATIONS
  MAXIMUM CONCENTRATION CHANGES FOR EACH ITERATION:
  MAX. CHANGE LAYER,ROW,COL MAX. CHANGE LAYER,ROW,COL MAX. CHANGE LAYER,ROW,COL MAX. CHANGE LAYER,ROW,COL MAX. CHANGE LAYER,ROW,COL
 ------------------------------------------------------------------------------------------------------------------------------------
    0.000     (  1,  1,  1)   0.000     (  1,  1,  1)


                     STREAM MASS BUDGETS AT END OF TRANSPORT STEP   50, TIME STEP    1, STRESS PERIOD    1 FOR COMPONENT   1
                     -------------------------------------------------------------------------------------------------------

                                         CUMULATIVE MASS [M]                                     MASS FOR THIS TIME STEP [M]
                                         -------------------                                    --------------
                      STREAM DEPLETION =  0.3833534E-04                      STREAM DEPLETION =  0.1704209E-06
                      INFLOW TO STREAM =   416.2502                          INFLOW TO STREAM =   8.325000    
                          GW TO STREAM =   49.95194                              GW TO STREAM =  0.9990391    
                         PRECIPITATION =   0.000000                             PRECIPITATION =   0.000000    
                                RUNOFF =   0.000000                                    RUNOFF =   0.000000    
                CONSTANT CONCENTRATION =   0.000000                    CONSTANT CONCENTRATION =   0.000000    
                             MASS GAIN =   0.000000                                 MASS GAIN =   0.000000    
                                         -------------------                                    --------------
                              TOTAL IN =   466.2021                                  TOTAL IN =   9.324039    

                   STREAM ACCUMULATION =  0.5865627E-03                   STREAM ACCUMULATION =  0.1121661E-04
                        STREAM OUTFLOW =   466.2017                            STREAM OUTFLOW =   9.324030    
                          STREAM TO GW =   0.000000                              STREAM TO GW =   0.000000    
                CONSTANT CONCENTRATION =   0.000000                    CONSTANT CONCENTRATION =   0.000000    
                           EVAPORATION =   0.000000                               EVAPORATION =   0.000000    
                             MASS LOSS =   0.000000                                 MASS LOSS =   0.000000    
                                         -------------------                                    --------------
                             TOTAL OUT =   466.2023                                 TOTAL OUT =   9.324041    

                        NET (IN - OUT) = -0.1220703E-03                        NET (IN - OUT) = -0.2861023E-05
                 DISCREPANCY (PERCENT) = -0.2618399E-04                 DISCREPANCY (PERCENT) = -0.3068437E-04
                                              FLOW ERR (QIN-QOUT-DV) = -0.9536743E-06 [L3/T]




 >>>>>>>>>>>>>>>>>>>>>>>>>>>>>>>>>>>>>>>>>>>>>>>>>>>>>>>FOR COMPONENT NO. 01<<<<<<<<<<<<<<<<<<<<<<<<<<<<<<<<<<<<<<<<<<<<<<<<<<<<<<<


                                            -------------------------------------------
                                                      TRANSPORT STEP NO.   50
                                            -------------------------------------------

 TOTAL ELAPSED TIME SINCE BEGINNING OF SIMULATION =   9000.000    D   
 .....................................................................

                     CUMULATIVE MASS BUDGETS AT END OF TRANSPORT STEP   50, TIME STEP    1, STRESS PERIOD    1
                     -----------------------------------------------------------------------------------------

                                                             IN                           OUT
                                                      ----------------             ----------------
                               CONSTANT CONCENTRATION:    0.000000                    0.000000    
                                        CONSTANT HEAD:    112.3401                   -62.38952    
                                               STREAM:    0.000000                   -49.95194    
                               MASS STOR (FLOW MODEL):   0.1517642E-02              -0.2054889E-07
                                MASS STORAGE (SOLUTE):    0.000000                    0.000000    
                            ---------------------------------------------------------------------------
                                              [TOTAL]:    112.3416     KG            -112.3415     KG  

                                                          NET (IN - OUT):   0.1144409E-03
                                                   DISCREPANCY (PERCENT):   0.1018688E-03
     2 CALLS TO GCG PACKAGE FOR TRANSPORT TIME STEP    51 IN FLOW TIME STEP     1 STRESS PERIOD     1
      2 TOTAL ITERATIONS
  MAXIMUM CONCENTRATION CHANGES FOR EACH ITERATION:
  MAX. CHANGE LAYER,ROW,COL MAX. CHANGE LAYER,ROW,COL MAX. CHANGE LAYER,ROW,COL MAX. CHANGE LAYER,ROW,COL MAX. CHANGE LAYER,ROW,COL
 ------------------------------------------------------------------------------------------------------------------------------------
    0.000     (  1,  1,  1)   0.000     (  1,  1,  1)


                     STREAM MASS BUDGETS AT END OF TRANSPORT STEP   51, TIME STEP    1, STRESS PERIOD    1 FOR COMPONENT   1
                     -------------------------------------------------------------------------------------------------------

                                         CUMULATIVE MASS [M]                                     MASS FOR THIS TIME STEP [M]
                                         -------------------                                    --------------
                      STREAM DEPLETION =  0.3848840E-04                      STREAM DEPLETION =  0.1530561E-06
                      INFLOW TO STREAM =   424.5752                          INFLOW TO STREAM =   8.325000    
                          GW TO STREAM =   50.95098                              GW TO STREAM =  0.9990391    
                         PRECIPITATION =   0.000000                             PRECIPITATION =   0.000000    
                                RUNOFF =   0.000000                                    RUNOFF =   0.000000    
                CONSTANT CONCENTRATION =   0.000000                    CONSTANT CONCENTRATION =   0.000000    
                             MASS GAIN =   0.000000                                 MASS GAIN =   0.000000    
                                         -------------------                                    --------------
                              TOTAL IN =   475.5262                                  TOTAL IN =   9.324039    

                   STREAM ACCUMULATION =  0.5977736E-03                   STREAM ACCUMULATION =  0.1121089E-04
                        STREAM OUTFLOW =   475.5257                            STREAM OUTFLOW =   9.324030    
                          STREAM TO GW =   0.000000                              STREAM TO GW =   0.000000    
                CONSTANT CONCENTRATION =   0.000000                    CONSTANT CONCENTRATION =   0.000000    
                           EVAPORATION =   0.000000                               EVAPORATION =   0.000000    
                             MASS LOSS =   0.000000                                 MASS LOSS =   0.000000    
                                         -------------------                                    --------------
                             TOTAL OUT =   475.5263                                 TOTAL OUT =   9.324041    

                        NET (IN - OUT) = -0.1220703E-03                        NET (IN - OUT) = -0.2861023E-05
                 DISCREPANCY (PERCENT) = -0.2567057E-04                 DISCREPANCY (PERCENT) = -0.3068437E-04
                                              FLOW ERR (QIN-QOUT-DV) = -0.9536743E-06 [L3/T]




 >>>>>>>>>>>>>>>>>>>>>>>>>>>>>>>>>>>>>>>>>>>>>>>>>>>>>>>FOR COMPONENT NO. 01<<<<<<<<<<<<<<<<<<<<<<<<<<<<<<<<<<<<<<<<<<<<<<<<<<<<<<<


                                            -------------------------------------------
                                                      TRANSPORT STEP NO.   51
                                            -------------------------------------------

 TOTAL ELAPSED TIME SINCE BEGINNING OF SIMULATION =   9180.000    D   
 .....................................................................

                     CUMULATIVE MASS BUDGETS AT END OF TRANSPORT STEP   51, TIME STEP    1, STRESS PERIOD    1
                     -----------------------------------------------------------------------------------------

                                                             IN                           OUT
                                                      ----------------             ----------------
                               CONSTANT CONCENTRATION:    0.000000                    0.000000    
                                        CONSTANT HEAD:    114.5869                   -63.63731    
                                               STREAM:    0.000000                   -50.95098    
                               MASS STOR (FLOW MODEL):   0.1547995E-02              -0.2095986E-07
                                MASS STORAGE (SOLUTE):    0.000000                    0.000000    
                            ---------------------------------------------------------------------------
                                              [TOTAL]:    114.5884     KG            -114.5883     KG  

                                                          NET (IN - OUT):   0.1220703E-03
                                                   DISCREPANCY (PERCENT):   0.1065294E-03
     2 CALLS TO GCG PACKAGE FOR TRANSPORT TIME STEP    52 IN FLOW TIME STEP     1 STRESS PERIOD     1
      2 TOTAL ITERATIONS
  MAXIMUM CONCENTRATION CHANGES FOR EACH ITERATION:
  MAX. CHANGE LAYER,ROW,COL MAX. CHANGE LAYER,ROW,COL MAX. CHANGE LAYER,ROW,COL MAX. CHANGE LAYER,ROW,COL MAX. CHANGE LAYER,ROW,COL
 ------------------------------------------------------------------------------------------------------------------------------------
    0.000     (  1,  1,  1)   0.000     (  1,  1,  1)


                     STREAM MASS BUDGETS AT END OF TRANSPORT STEP   52, TIME STEP    1, STRESS PERIOD    1 FOR COMPONENT   1
                     -------------------------------------------------------------------------------------------------------

                                         CUMULATIVE MASS [M]                                     MASS FOR THIS TIME STEP [M]
                                         -------------------                                    --------------
                      STREAM DEPLETION =  0.3862510E-04                      STREAM DEPLETION =  0.1367042E-06
                      INFLOW TO STREAM =   432.9002                          INFLOW TO STREAM =   8.325000    
                          GW TO STREAM =   51.95002                              GW TO STREAM =  0.9990391    
                         PRECIPITATION =   0.000000                             PRECIPITATION =   0.000000    
                                RUNOFF =   0.000000                                    RUNOFF =   0.000000    
                CONSTANT CONCENTRATION =   0.000000                    CONSTANT CONCENTRATION =   0.000000    
                             MASS GAIN =   0.000000                                 MASS GAIN =   0.000000    
                                         -------------------                                    --------------
                              TOTAL IN =   484.8503                                  TOTAL IN =   9.324039    

                   STREAM ACCUMULATION =  0.6089794E-03                   STREAM ACCUMULATION =  0.1120576E-04
                        STREAM OUTFLOW =   484.8498                            STREAM OUTFLOW =   9.324030    
                          STREAM TO GW =   0.000000                              STREAM TO GW =   0.000000    
                CONSTANT CONCENTRATION =   0.000000                    CONSTANT CONCENTRATION =   0.000000    
                           EVAPORATION =   0.000000                               EVAPORATION =   0.000000    
                             MASS LOSS =   0.000000                                 MASS LOSS =   0.000000    
                                         -------------------                                    --------------
                             TOTAL OUT =   484.8504                                 TOTAL OUT =   9.324041    

                        NET (IN - OUT) = -0.1220703E-03                        NET (IN - OUT) = -0.2861023E-05
                 DISCREPANCY (PERCENT) = -0.2517691E-04                 DISCREPANCY (PERCENT) = -0.3068437E-04
                                              FLOW ERR (QIN-QOUT-DV) = -0.9536743E-06 [L3/T]




 >>>>>>>>>>>>>>>>>>>>>>>>>>>>>>>>>>>>>>>>>>>>>>>>>>>>>>>FOR COMPONENT NO. 01<<<<<<<<<<<<<<<<<<<<<<<<<<<<<<<<<<<<<<<<<<<<<<<<<<<<<<<


                                            -------------------------------------------
                                                      TRANSPORT STEP NO.   52
                                            -------------------------------------------

 TOTAL ELAPSED TIME SINCE BEGINNING OF SIMULATION =   9360.000    D   
 .....................................................................

                     CUMULATIVE MASS BUDGETS AT END OF TRANSPORT STEP   52, TIME STEP    1, STRESS PERIOD    1
                     -----------------------------------------------------------------------------------------

                                                             IN                           OUT
                                                      ----------------             ----------------
                               CONSTANT CONCENTRATION:    0.000000                    0.000000    
                                        CONSTANT HEAD:    116.8337                   -64.88510    
                                               STREAM:    0.000000                   -51.95002    
                               MASS STOR (FLOW MODEL):   0.1578348E-02              -0.2137084E-07
                                MASS STORAGE (SOLUTE):    0.000000                    0.000000    
                            ---------------------------------------------------------------------------
                                              [TOTAL]:    116.8352     KG            -116.8351     KG  

                                                          NET (IN - OUT):   0.1296997E-03
                                                   DISCREPANCY (PERCENT):   0.1110108E-03
     2 CALLS TO GCG PACKAGE FOR TRANSPORT TIME STEP    53 IN FLOW TIME STEP     1 STRESS PERIOD     1
      2 TOTAL ITERATIONS
  MAXIMUM CONCENTRATION CHANGES FOR EACH ITERATION:
  MAX. CHANGE LAYER,ROW,COL MAX. CHANGE LAYER,ROW,COL MAX. CHANGE LAYER,ROW,COL MAX. CHANGE LAYER,ROW,COL MAX. CHANGE LAYER,ROW,COL
 ------------------------------------------------------------------------------------------------------------------------------------
    0.000     (  1,  1,  1)   0.000     (  1,  1,  1)


                     STREAM MASS BUDGETS AT END OF TRANSPORT STEP   53, TIME STEP    1, STRESS PERIOD    1 FOR COMPONENT   1
                     -------------------------------------------------------------------------------------------------------

                                         CUMULATIVE MASS [M]                                     MASS FOR THIS TIME STEP [M]
                                         -------------------                                    --------------
                      STREAM DEPLETION =  0.3874435E-04                      STREAM DEPLETION =  0.1192470E-06
                      INFLOW TO STREAM =   441.2252                          INFLOW TO STREAM =   8.325000    
                          GW TO STREAM =   52.94905                              GW TO STREAM =  0.9990391    
                         PRECIPITATION =   0.000000                             PRECIPITATION =   0.000000    
                                RUNOFF =   0.000000                                    RUNOFF =   0.000000    
                CONSTANT CONCENTRATION =   0.000000                    CONSTANT CONCENTRATION =   0.000000    
                             MASS GAIN =   0.000000                                 MASS GAIN =   0.000000    
                                         -------------------                                    --------------
                              TOTAL IN =   494.1743                                  TOTAL IN =   9.324039    

                   STREAM ACCUMULATION =  0.6201787E-03                   STREAM ACCUMULATION =  0.1119933E-04
                        STREAM OUTFLOW =   494.1738                            STREAM OUTFLOW =   9.324030    
                          STREAM TO GW =   0.000000                              STREAM TO GW =   0.000000    
                CONSTANT CONCENTRATION =   0.000000                    CONSTANT CONCENTRATION =   0.000000    
                           EVAPORATION =   0.000000                               EVAPORATION =   0.000000    
                             MASS LOSS =   0.000000                                 MASS LOSS =   0.000000    
                                         -------------------                                    --------------
                             TOTAL OUT =   494.1744                                 TOTAL OUT =   9.324041    

                        NET (IN - OUT) = -0.9155273E-04                        NET (IN - OUT) = -0.2861023E-05
                 DISCREPANCY (PERCENT) = -0.1852640E-04                 DISCREPANCY (PERCENT) = -0.3068437E-04
                                              FLOW ERR (QIN-QOUT-DV) = -0.9536743E-06 [L3/T]




 >>>>>>>>>>>>>>>>>>>>>>>>>>>>>>>>>>>>>>>>>>>>>>>>>>>>>>>FOR COMPONENT NO. 01<<<<<<<<<<<<<<<<<<<<<<<<<<<<<<<<<<<<<<<<<<<<<<<<<<<<<<<


                                            -------------------------------------------
                                                      TRANSPORT STEP NO.   53
                                            -------------------------------------------

 TOTAL ELAPSED TIME SINCE BEGINNING OF SIMULATION =   9540.000    D   
 .....................................................................

                     CUMULATIVE MASS BUDGETS AT END OF TRANSPORT STEP   53, TIME STEP    1, STRESS PERIOD    1
                     -----------------------------------------------------------------------------------------

                                                             IN                           OUT
                                                      ----------------             ----------------
                               CONSTANT CONCENTRATION:    0.000000                    0.000000    
                                        CONSTANT HEAD:    119.0805                   -66.13289    
                                               STREAM:    0.000000                   -52.94905    
                               MASS STOR (FLOW MODEL):   0.1608701E-02              -0.2178182E-07
                                MASS STORAGE (SOLUTE):    0.000000                    0.000000    
                            ---------------------------------------------------------------------------
                                              [TOTAL]:    119.0821     KG            -119.0819     KG  

                                                          NET (IN - OUT):   0.1373291E-03
                                                   DISCREPANCY (PERCENT):   0.1153231E-03
     2 CALLS TO GCG PACKAGE FOR TRANSPORT TIME STEP    54 IN FLOW TIME STEP     1 STRESS PERIOD     1
      2 TOTAL ITERATIONS
  MAXIMUM CONCENTRATION CHANGES FOR EACH ITERATION:
  MAX. CHANGE LAYER,ROW,COL MAX. CHANGE LAYER,ROW,COL MAX. CHANGE LAYER,ROW,COL MAX. CHANGE LAYER,ROW,COL MAX. CHANGE LAYER,ROW,COL
 ------------------------------------------------------------------------------------------------------------------------------------
    0.000     (  1,  1,  1)   0.000     (  1,  1,  1)


                     STREAM MASS BUDGETS AT END OF TRANSPORT STEP   54, TIME STEP    1, STRESS PERIOD    1 FOR COMPONENT   1
                     -------------------------------------------------------------------------------------------------------

                                         CUMULATIVE MASS [M]                                     MASS FOR THIS TIME STEP [M]
                                         -------------------                                    --------------
                      STREAM DEPLETION =  0.3884813E-04                      STREAM DEPLETION =  0.1037826E-06
                      INFLOW TO STREAM =   449.5502                          INFLOW TO STREAM =   8.325000    
                          GW TO STREAM =   53.94809                              GW TO STREAM =  0.9990391    
                         PRECIPITATION =   0.000000                             PRECIPITATION =   0.000000    
                                RUNOFF =   0.000000                                    RUNOFF =   0.000000    
                CONSTANT CONCENTRATION =   0.000000                    CONSTANT CONCENTRATION =   0.000000    
                             MASS GAIN =   0.000000                                 MASS GAIN =   0.000000    
                                         -------------------                                    --------------
                              TOTAL IN =   503.4984                                  TOTAL IN =   9.324039    

                   STREAM ACCUMULATION =  0.6313729E-03                   STREAM ACCUMULATION =  0.1119423E-04
                        STREAM OUTFLOW =   503.4978                            STREAM OUTFLOW =   9.324030    
                          STREAM TO GW =   0.000000                              STREAM TO GW =   0.000000    
                CONSTANT CONCENTRATION =   0.000000                    CONSTANT CONCENTRATION =   0.000000    
                           EVAPORATION =   0.000000                               EVAPORATION =   0.000000    
                             MASS LOSS =   0.000000                                 MASS LOSS =   0.000000    
                                         -------------------                                    --------------
                             TOTAL OUT =   503.4985                                 TOTAL OUT =   9.324041    

                        NET (IN - OUT) = -0.1220703E-03                        NET (IN - OUT) = -0.2861023E-05
                 DISCREPANCY (PERCENT) = -0.2424443E-04                 DISCREPANCY (PERCENT) = -0.3068437E-04
                                              FLOW ERR (QIN-QOUT-DV) = -0.9536743E-06 [L3/T]




 >>>>>>>>>>>>>>>>>>>>>>>>>>>>>>>>>>>>>>>>>>>>>>>>>>>>>>>FOR COMPONENT NO. 01<<<<<<<<<<<<<<<<<<<<<<<<<<<<<<<<<<<<<<<<<<<<<<<<<<<<<<<


                                            -------------------------------------------
                                                      TRANSPORT STEP NO.   54
                                            -------------------------------------------

 TOTAL ELAPSED TIME SINCE BEGINNING OF SIMULATION =   9720.000    D   
 .....................................................................

                     CUMULATIVE MASS BUDGETS AT END OF TRANSPORT STEP   54, TIME STEP    1, STRESS PERIOD    1
                     -----------------------------------------------------------------------------------------

                                                             IN                           OUT
                                                      ----------------             ----------------
                               CONSTANT CONCENTRATION:    0.000000                    0.000000    
                                        CONSTANT HEAD:    121.3273                   -67.38068    
                                               STREAM:    0.000000                   -53.94809    
                               MASS STOR (FLOW MODEL):   0.1639054E-02              -0.2219280E-07
                                MASS STORAGE (SOLUTE):    0.000000                    0.000000    
                            ---------------------------------------------------------------------------
                                              [TOTAL]:    121.3289     KG            -121.3288     KG  

                                                          NET (IN - OUT):   0.1449585E-03
                                                   DISCREPANCY (PERCENT):   0.1194757E-03
     2 CALLS TO GCG PACKAGE FOR TRANSPORT TIME STEP    55 IN FLOW TIME STEP     1 STRESS PERIOD     1
      2 TOTAL ITERATIONS
  MAXIMUM CONCENTRATION CHANGES FOR EACH ITERATION:
  MAX. CHANGE LAYER,ROW,COL MAX. CHANGE LAYER,ROW,COL MAX. CHANGE LAYER,ROW,COL MAX. CHANGE LAYER,ROW,COL MAX. CHANGE LAYER,ROW,COL
 ------------------------------------------------------------------------------------------------------------------------------------
    0.000     (  1,  1,  1)   0.000     (  1,  1,  1)


                     STREAM MASS BUDGETS AT END OF TRANSPORT STEP   55, TIME STEP    1, STRESS PERIOD    1 FOR COMPONENT   1
                     -------------------------------------------------------------------------------------------------------

                                         CUMULATIVE MASS [M]                                     MASS FOR THIS TIME STEP [M]
                                         -------------------                                    --------------
                      STREAM DEPLETION =  0.3893673E-04                      STREAM DEPLETION =  0.8859880E-07
                      INFLOW TO STREAM =   457.8752                          INFLOW TO STREAM =   8.325000    
                          GW TO STREAM =   54.94713                              GW TO STREAM =  0.9990391    
                         PRECIPITATION =   0.000000                             PRECIPITATION =   0.000000    
                                RUNOFF =   0.000000                                    RUNOFF =   0.000000    
                CONSTANT CONCENTRATION =   0.000000                    CONSTANT CONCENTRATION =   0.000000    
                             MASS GAIN =   0.000000                                 MASS GAIN =   0.000000    
                                         -------------------                                    --------------
                              TOTAL IN =   512.8224                                  TOTAL IN =   9.324039    

                   STREAM ACCUMULATION =  0.6425618E-03                   STREAM ACCUMULATION =  0.1118894E-04
                        STREAM OUTFLOW =   512.8218                            STREAM OUTFLOW =   9.324030    
                          STREAM TO GW =   0.000000                              STREAM TO GW =   0.000000    
                CONSTANT CONCENTRATION =   0.000000                    CONSTANT CONCENTRATION =   0.000000    
                           EVAPORATION =   0.000000                               EVAPORATION =   0.000000    
                             MASS LOSS =   0.000000                                 MASS LOSS =   0.000000    
                                         -------------------                                    --------------
                             TOTAL OUT =   512.8225                                 TOTAL OUT =   9.324041    

                        NET (IN - OUT) = -0.1220703E-03                        NET (IN - OUT) = -0.2861023E-05
                 DISCREPANCY (PERCENT) = -0.2380362E-04                 DISCREPANCY (PERCENT) = -0.3068437E-04
                                              FLOW ERR (QIN-QOUT-DV) = -0.9536743E-06 [L3/T]




 >>>>>>>>>>>>>>>>>>>>>>>>>>>>>>>>>>>>>>>>>>>>>>>>>>>>>>>FOR COMPONENT NO. 01<<<<<<<<<<<<<<<<<<<<<<<<<<<<<<<<<<<<<<<<<<<<<<<<<<<<<<<


                                            -------------------------------------------
                                                      TRANSPORT STEP NO.   55
                                            -------------------------------------------

 TOTAL ELAPSED TIME SINCE BEGINNING OF SIMULATION =   9900.000    D   
 .....................................................................

                     CUMULATIVE MASS BUDGETS AT END OF TRANSPORT STEP   55, TIME STEP    1, STRESS PERIOD    1
                     -----------------------------------------------------------------------------------------

                                                             IN                           OUT
                                                      ----------------             ----------------
                               CONSTANT CONCENTRATION:    0.000000                    0.000000    
                                        CONSTANT HEAD:    123.5741                   -68.62846    
                                               STREAM:    0.000000                   -54.94713    
                               MASS STOR (FLOW MODEL):   0.1669406E-02              -0.2260378E-07
                                MASS STORAGE (SOLUTE):    0.000000                    0.000000    
                            ---------------------------------------------------------------------------
                                              [TOTAL]:    123.5757     KG            -123.5756     KG  

                                                          NET (IN - OUT):   0.1525879E-03
                                                   DISCREPANCY (PERCENT):   0.1234773E-03
     2 CALLS TO GCG PACKAGE FOR TRANSPORT TIME STEP    56 IN FLOW TIME STEP     1 STRESS PERIOD     1
      2 TOTAL ITERATIONS
  MAXIMUM CONCENTRATION CHANGES FOR EACH ITERATION:
  MAX. CHANGE LAYER,ROW,COL MAX. CHANGE LAYER,ROW,COL MAX. CHANGE LAYER,ROW,COL MAX. CHANGE LAYER,ROW,COL MAX. CHANGE LAYER,ROW,COL
 ------------------------------------------------------------------------------------------------------------------------------------
    0.000     (  1,  1,  1)   0.000     (  1,  1,  1)


                     STREAM MASS BUDGETS AT END OF TRANSPORT STEP   56, TIME STEP    1, STRESS PERIOD    1 FOR COMPONENT   1
                     -------------------------------------------------------------------------------------------------------

                                         CUMULATIVE MASS [M]                                     MASS FOR THIS TIME STEP [M]
                                         -------------------                                    --------------
                      STREAM DEPLETION =  0.3901167E-04                      STREAM DEPLETION =  0.7493884E-07
                      INFLOW TO STREAM =   466.2003                          INFLOW TO STREAM =   8.325000    
                          GW TO STREAM =   55.94617                              GW TO STREAM =  0.9990391    
                         PRECIPITATION =   0.000000                             PRECIPITATION =   0.000000    
                                RUNOFF =   0.000000                                    RUNOFF =   0.000000    
                CONSTANT CONCENTRATION =   0.000000                    CONSTANT CONCENTRATION =   0.000000    
                             MASS GAIN =   0.000000                                 MASS GAIN =   0.000000    
                                         -------------------                                    --------------
                              TOTAL IN =   522.1465                                  TOTAL IN =   9.324039    

                   STREAM ACCUMULATION =  0.6537460E-03                   STREAM ACCUMULATION =  0.1118420E-04
                        STREAM OUTFLOW =   522.1459                            STREAM OUTFLOW =   9.324030    
                          STREAM TO GW =   0.000000                              STREAM TO GW =   0.000000    
                CONSTANT CONCENTRATION =   0.000000                    CONSTANT CONCENTRATION =   0.000000    
                           EVAPORATION =   0.000000                               EVAPORATION =   0.000000    
                             MASS LOSS =   0.000000                                 MASS LOSS =   0.000000    
                                         -------------------                                    --------------
                             TOTAL OUT =   522.1465                                 TOTAL OUT =   9.324041    

                        NET (IN - OUT) = -0.6103516E-04                        NET (IN - OUT) = -0.2861023E-05
                 DISCREPANCY (PERCENT) = -0.1168928E-04                 DISCREPANCY (PERCENT) = -0.3068437E-04
                                              FLOW ERR (QIN-QOUT-DV) = -0.9536743E-06 [L3/T]




 >>>>>>>>>>>>>>>>>>>>>>>>>>>>>>>>>>>>>>>>>>>>>>>>>>>>>>>FOR COMPONENT NO. 01<<<<<<<<<<<<<<<<<<<<<<<<<<<<<<<<<<<<<<<<<<<<<<<<<<<<<<<


                                            -------------------------------------------
                                                      TRANSPORT STEP NO.   56
                                            -------------------------------------------

 TOTAL ELAPSED TIME SINCE BEGINNING OF SIMULATION =   10080.00    D   
 .....................................................................

                     CUMULATIVE MASS BUDGETS AT END OF TRANSPORT STEP   56, TIME STEP    1, STRESS PERIOD    1
                     -----------------------------------------------------------------------------------------

                                                             IN                           OUT
                                                      ----------------             ----------------
                               CONSTANT CONCENTRATION:    0.000000                    0.000000    
                                        CONSTANT HEAD:    125.8209                   -69.87625    
                                               STREAM:    0.000000                   -55.94617    
                               MASS STOR (FLOW MODEL):   0.1699759E-02              -0.2301475E-07
                                MASS STORAGE (SOLUTE):    0.000000                    0.000000    
                            ---------------------------------------------------------------------------
                                              [TOTAL]:    125.8226     KG            -125.8224     KG  

                                                          NET (IN - OUT):   0.1602173E-03
                                                   DISCREPANCY (PERCENT):   0.1273360E-03
     2 CALLS TO GCG PACKAGE FOR TRANSPORT TIME STEP    57 IN FLOW TIME STEP     1 STRESS PERIOD     1
      2 TOTAL ITERATIONS
  MAXIMUM CONCENTRATION CHANGES FOR EACH ITERATION:
  MAX. CHANGE LAYER,ROW,COL MAX. CHANGE LAYER,ROW,COL MAX. CHANGE LAYER,ROW,COL MAX. CHANGE LAYER,ROW,COL MAX. CHANGE LAYER,ROW,COL
 ------------------------------------------------------------------------------------------------------------------------------------
    0.000     (  1,  1,  1)   0.000     (  1,  1,  1)


                     STREAM MASS BUDGETS AT END OF TRANSPORT STEP   57, TIME STEP    1, STRESS PERIOD    1 FOR COMPONENT   1
                     -------------------------------------------------------------------------------------------------------

                                         CUMULATIVE MASS [M]                                     MASS FOR THIS TIME STEP [M]
                                         -------------------                                    --------------
                      STREAM DEPLETION =  0.3907350E-04                      STREAM DEPLETION =  0.6182811E-07
                      INFLOW TO STREAM =   474.5253                          INFLOW TO STREAM =   8.325000    
                          GW TO STREAM =   56.94521                              GW TO STREAM =  0.9990391    
                         PRECIPITATION =   0.000000                             PRECIPITATION =   0.000000    
                                RUNOFF =   0.000000                                    RUNOFF =   0.000000    
                CONSTANT CONCENTRATION =   0.000000                    CONSTANT CONCENTRATION =   0.000000    
                             MASS GAIN =   0.000000                                 MASS GAIN =   0.000000    
                                         -------------------                                    --------------
                              TOTAL IN =   531.4705                                  TOTAL IN =   9.324039    

                   STREAM ACCUMULATION =  0.6649252E-03                   STREAM ACCUMULATION =  0.1117918E-04
                        STREAM OUTFLOW =   531.4699                            STREAM OUTFLOW =   9.324030    
                          STREAM TO GW =   0.000000                              STREAM TO GW =   0.000000    
                CONSTANT CONCENTRATION =   0.000000                    CONSTANT CONCENTRATION =   0.000000    
                           EVAPORATION =   0.000000                               EVAPORATION =   0.000000    
                             MASS LOSS =   0.000000                                 MASS LOSS =   0.000000    
                                         -------------------                                    --------------
                             TOTAL OUT =   531.4706                                 TOTAL OUT =   9.324041    

                        NET (IN - OUT) = -0.6103516E-04                        NET (IN - OUT) = -0.2861023E-05
                 DISCREPANCY (PERCENT) = -0.1148420E-04                 DISCREPANCY (PERCENT) = -0.3068437E-04
                                              FLOW ERR (QIN-QOUT-DV) = -0.9536743E-06 [L3/T]




 >>>>>>>>>>>>>>>>>>>>>>>>>>>>>>>>>>>>>>>>>>>>>>>>>>>>>>>FOR COMPONENT NO. 01<<<<<<<<<<<<<<<<<<<<<<<<<<<<<<<<<<<<<<<<<<<<<<<<<<<<<<<


                                            -------------------------------------------
                                                      TRANSPORT STEP NO.   57
                                            -------------------------------------------

 TOTAL ELAPSED TIME SINCE BEGINNING OF SIMULATION =   10260.00    D   
 .....................................................................

                     CUMULATIVE MASS BUDGETS AT END OF TRANSPORT STEP   57, TIME STEP    1, STRESS PERIOD    1
                     -----------------------------------------------------------------------------------------

                                                             IN                           OUT
                                                      ----------------             ----------------
                               CONSTANT CONCENTRATION:    0.000000                    0.000000    
                                        CONSTANT HEAD:    128.0677                   -71.12404    
                                               STREAM:    0.000000                   -56.94521    
                               MASS STOR (FLOW MODEL):   0.1730112E-02              -0.2342573E-07
                                MASS STORAGE (SOLUTE):    0.000000                    0.000000    
                            ---------------------------------------------------------------------------
                                              [TOTAL]:    128.0694     KG            -128.0692     KG  

                                                          NET (IN - OUT):   0.1525879E-03
                                                   DISCREPANCY (PERCENT):   0.1191448E-03
     2 CALLS TO GCG PACKAGE FOR TRANSPORT TIME STEP    58 IN FLOW TIME STEP     1 STRESS PERIOD     1
      2 TOTAL ITERATIONS
  MAXIMUM CONCENTRATION CHANGES FOR EACH ITERATION:
  MAX. CHANGE LAYER,ROW,COL MAX. CHANGE LAYER,ROW,COL MAX. CHANGE LAYER,ROW,COL MAX. CHANGE LAYER,ROW,COL MAX. CHANGE LAYER,ROW,COL
 ------------------------------------------------------------------------------------------------------------------------------------
    0.000     (  1,  1,  1)   0.000     (  1,  1,  1)


                     STREAM MASS BUDGETS AT END OF TRANSPORT STEP   58, TIME STEP    1, STRESS PERIOD    1 FOR COMPONENT   1
                     -------------------------------------------------------------------------------------------------------

                                         CUMULATIVE MASS [M]                                     MASS FOR THIS TIME STEP [M]
                                         -------------------                                    --------------
                      STREAM DEPLETION =  0.3912374E-04                      STREAM DEPLETION =  0.5024594E-07
                      INFLOW TO STREAM =   482.8503                          INFLOW TO STREAM =   8.325000    
                          GW TO STREAM =   57.94425                              GW TO STREAM =  0.9990391    
                         PRECIPITATION =   0.000000                             PRECIPITATION =   0.000000    
                                RUNOFF =   0.000000                                    RUNOFF =   0.000000    
                CONSTANT CONCENTRATION =   0.000000                    CONSTANT CONCENTRATION =   0.000000    
                             MASS GAIN =   0.000000                                 MASS GAIN =   0.000000    
                                         -------------------                                    --------------
                              TOTAL IN =   540.7946                                  TOTAL IN =   9.324039    

                   STREAM ACCUMULATION =  0.6760996E-03                   STREAM ACCUMULATION =  0.1117437E-04
                        STREAM OUTFLOW =   540.7939                            STREAM OUTFLOW =   9.324030    
                          STREAM TO GW =   0.000000                              STREAM TO GW =   0.000000    
                CONSTANT CONCENTRATION =   0.000000                    CONSTANT CONCENTRATION =   0.000000    
                           EVAPORATION =   0.000000                               EVAPORATION =   0.000000    
                             MASS LOSS =   0.000000                                 MASS LOSS =   0.000000    
                                         -------------------                                    --------------
                             TOTAL OUT =   540.7946                                 TOTAL OUT =   9.324041    

                        NET (IN - OUT) = -0.6103516E-04                        NET (IN - OUT) = -0.2861023E-05
                 DISCREPANCY (PERCENT) = -0.1128620E-04                 DISCREPANCY (PERCENT) = -0.3068437E-04
                                              FLOW ERR (QIN-QOUT-DV) = -0.9536743E-06 [L3/T]




 >>>>>>>>>>>>>>>>>>>>>>>>>>>>>>>>>>>>>>>>>>>>>>>>>>>>>>>FOR COMPONENT NO. 01<<<<<<<<<<<<<<<<<<<<<<<<<<<<<<<<<<<<<<<<<<<<<<<<<<<<<<<


                                            -------------------------------------------
                                                      TRANSPORT STEP NO.   58
                                            -------------------------------------------

 TOTAL ELAPSED TIME SINCE BEGINNING OF SIMULATION =   10440.00    D   
 .....................................................................

                     CUMULATIVE MASS BUDGETS AT END OF TRANSPORT STEP   58, TIME STEP    1, STRESS PERIOD    1
                     -----------------------------------------------------------------------------------------

                                                             IN                           OUT
                                                      ----------------             ----------------
                               CONSTANT CONCENTRATION:    0.000000                    0.000000    
                                        CONSTANT HEAD:    130.3145                   -72.37183    
                                               STREAM:    0.000000                   -57.94425    
                               MASS STOR (FLOW MODEL):   0.1760465E-02              -0.2383671E-07
                                MASS STORAGE (SOLUTE):    0.000000                    0.000000    
                            ---------------------------------------------------------------------------
                                              [TOTAL]:    130.3162     KG            -130.3161     KG  

                                                          NET (IN - OUT):   0.1525879E-03
                                                   DISCREPANCY (PERCENT):   0.1170905E-03
     2 CALLS TO GCG PACKAGE FOR TRANSPORT TIME STEP    59 IN FLOW TIME STEP     1 STRESS PERIOD     1
      2 TOTAL ITERATIONS
  MAXIMUM CONCENTRATION CHANGES FOR EACH ITERATION:
  MAX. CHANGE LAYER,ROW,COL MAX. CHANGE LAYER,ROW,COL MAX. CHANGE LAYER,ROW,COL MAX. CHANGE LAYER,ROW,COL MAX. CHANGE LAYER,ROW,COL
 ------------------------------------------------------------------------------------------------------------------------------------
    0.000     (  1,  1,  1)   0.000     (  1,  1,  1)


                     STREAM MASS BUDGETS AT END OF TRANSPORT STEP   59, TIME STEP    1, STRESS PERIOD    1 FOR COMPONENT   1
                     -------------------------------------------------------------------------------------------------------

                                         CUMULATIVE MASS [M]                                     MASS FOR THIS TIME STEP [M]
                                         -------------------                                    --------------
                      STREAM DEPLETION =  0.3916330E-04                      STREAM DEPLETION =  0.3955405E-07
                      INFLOW TO STREAM =   491.1753                          INFLOW TO STREAM =   8.325000    
                          GW TO STREAM =   58.94329                              GW TO STREAM =  0.9990391    
                         PRECIPITATION =   0.000000                             PRECIPITATION =   0.000000    
                                RUNOFF =   0.000000                                    RUNOFF =   0.000000    
                CONSTANT CONCENTRATION =   0.000000                    CONSTANT CONCENTRATION =   0.000000    
                             MASS GAIN =   0.000000                                 MASS GAIN =   0.000000    
                                         -------------------                                    --------------
                              TOTAL IN =   550.1186                                  TOTAL IN =   9.324039    

                   STREAM ACCUMULATION =  0.6872687E-03                   STREAM ACCUMULATION =  0.1116917E-04
                        STREAM OUTFLOW =   550.1180                            STREAM OUTFLOW =   9.324030    
                          STREAM TO GW =   0.000000                              STREAM TO GW =   0.000000    
                CONSTANT CONCENTRATION =   0.000000                    CONSTANT CONCENTRATION =   0.000000    
                           EVAPORATION =   0.000000                               EVAPORATION =   0.000000    
                             MASS LOSS =   0.000000                                 MASS LOSS =   0.000000    
                                         -------------------                                    --------------
                             TOTAL OUT =   550.1187                                 TOTAL OUT =   9.324041    

                        NET (IN - OUT) = -0.6103516E-04                        NET (IN - OUT) = -0.2861023E-05
                 DISCREPANCY (PERCENT) = -0.1109491E-04                 DISCREPANCY (PERCENT) = -0.3068437E-04
                                              FLOW ERR (QIN-QOUT-DV) = -0.9536743E-06 [L3/T]




 >>>>>>>>>>>>>>>>>>>>>>>>>>>>>>>>>>>>>>>>>>>>>>>>>>>>>>>FOR COMPONENT NO. 01<<<<<<<<<<<<<<<<<<<<<<<<<<<<<<<<<<<<<<<<<<<<<<<<<<<<<<<


                                            -------------------------------------------
                                                      TRANSPORT STEP NO.   59
                                            -------------------------------------------

 TOTAL ELAPSED TIME SINCE BEGINNING OF SIMULATION =   10620.00    D   
 .....................................................................

                     CUMULATIVE MASS BUDGETS AT END OF TRANSPORT STEP   59, TIME STEP    1, STRESS PERIOD    1
                     -----------------------------------------------------------------------------------------

                                                             IN                           OUT
                                                      ----------------             ----------------
                               CONSTANT CONCENTRATION:    0.000000                    0.000000    
                                        CONSTANT HEAD:    132.5613                   -73.61961    
                                               STREAM:    0.000000                   -58.94329    
                               MASS STOR (FLOW MODEL):   0.1790818E-02              -0.2424769E-07
                                MASS STORAGE (SOLUTE):    0.000000                    0.000000    
                            ---------------------------------------------------------------------------
                                              [TOTAL]:    132.5630     KG            -132.5629     KG  

                                                          NET (IN - OUT):   0.1525879E-03
                                                   DISCREPANCY (PERCENT):   0.1151060E-03
     2 CALLS TO GCG PACKAGE FOR TRANSPORT TIME STEP    60 IN FLOW TIME STEP     1 STRESS PERIOD     1
      2 TOTAL ITERATIONS
  MAXIMUM CONCENTRATION CHANGES FOR EACH ITERATION:
  MAX. CHANGE LAYER,ROW,COL MAX. CHANGE LAYER,ROW,COL MAX. CHANGE LAYER,ROW,COL MAX. CHANGE LAYER,ROW,COL MAX. CHANGE LAYER,ROW,COL
 ------------------------------------------------------------------------------------------------------------------------------------
    0.000     (  1,  1,  1)   0.000     (  1,  1,  1)


                     STREAM MASS BUDGETS AT END OF TRANSPORT STEP   60, TIME STEP    1, STRESS PERIOD    1 FOR COMPONENT   1
                     -------------------------------------------------------------------------------------------------------

                                         CUMULATIVE MASS [M]                                     MASS FOR THIS TIME STEP [M]
                                         -------------------                                    --------------
                      STREAM DEPLETION =  0.3919493E-04                      STREAM DEPLETION =  0.3162733E-07
                      INFLOW TO STREAM =   499.5003                          INFLOW TO STREAM =   8.325000    
                          GW TO STREAM =   59.94233                              GW TO STREAM =  0.9990391    
                         PRECIPITATION =   0.000000                             PRECIPITATION =   0.000000    
                                RUNOFF =   0.000000                                    RUNOFF =   0.000000    
                CONSTANT CONCENTRATION =   0.000000                    CONSTANT CONCENTRATION =   0.000000    
                             MASS GAIN =   0.000000                                 MASS GAIN =   0.000000    
                                         -------------------                                    --------------
                              TOTAL IN =   559.4427                                  TOTAL IN =   9.324039    

                   STREAM ACCUMULATION =  0.6984337E-03                   STREAM ACCUMULATION =  0.1116497E-04
                        STREAM OUTFLOW =   559.4420                            STREAM OUTFLOW =   9.324030    
                          STREAM TO GW =   0.000000                              STREAM TO GW =   0.000000    
                CONSTANT CONCENTRATION =   0.000000                    CONSTANT CONCENTRATION =   0.000000    
                           EVAPORATION =   0.000000                               EVAPORATION =   0.000000    
                             MASS LOSS =   0.000000                                 MASS LOSS =   0.000000    
                                         -------------------                                    --------------
                             TOTAL OUT =   559.4427                                 TOTAL OUT =   9.324041    

                        NET (IN - OUT) =   0.000000                            NET (IN - OUT) = -0.2861023E-05
                 DISCREPANCY (PERCENT) =   0.000000                     DISCREPANCY (PERCENT) = -0.3068437E-04
                                              FLOW ERR (QIN-QOUT-DV) = -0.9536743E-06 [L3/T]




 >>>>>>>>>>>>>>>>>>>>>>>>>>>>>>>>>>>>>>>>>>>>>>>>>>>>>>>FOR COMPONENT NO. 01<<<<<<<<<<<<<<<<<<<<<<<<<<<<<<<<<<<<<<<<<<<<<<<<<<<<<<<


                                            -------------------------------------------
                                                      TRANSPORT STEP NO.   60
                                            -------------------------------------------

 TOTAL ELAPSED TIME SINCE BEGINNING OF SIMULATION =   10800.00    D   
 .....................................................................

                     CUMULATIVE MASS BUDGETS AT END OF TRANSPORT STEP   60, TIME STEP    1, STRESS PERIOD    1
                     -----------------------------------------------------------------------------------------

                                                             IN                           OUT
                                                      ----------------             ----------------
                               CONSTANT CONCENTRATION:    0.000000                    0.000000    
                                        CONSTANT HEAD:    134.8081                   -74.86740    
                                               STREAM:    0.000000                   -59.94233    
                               MASS STOR (FLOW MODEL):   0.1821171E-02              -0.2465867E-07
                                MASS STORAGE (SOLUTE):    0.000000                    0.000000    
                            ---------------------------------------------------------------------------
                                              [TOTAL]:    134.8099     KG            -134.8097     KG  

                                                          NET (IN - OUT):   0.1525879E-03
                                                   DISCREPANCY (PERCENT):   0.1131875E-03
     2 CALLS TO GCG PACKAGE FOR TRANSPORT TIME STEP    61 IN FLOW TIME STEP     1 STRESS PERIOD     1
      2 TOTAL ITERATIONS
  MAXIMUM CONCENTRATION CHANGES FOR EACH ITERATION:
  MAX. CHANGE LAYER,ROW,COL MAX. CHANGE LAYER,ROW,COL MAX. CHANGE LAYER,ROW,COL MAX. CHANGE LAYER,ROW,COL MAX. CHANGE LAYER,ROW,COL
 ------------------------------------------------------------------------------------------------------------------------------------
    0.000     (  1,  1,  1)   0.000     (  1,  1,  1)


                     STREAM MASS BUDGETS AT END OF TRANSPORT STEP   61, TIME STEP    1, STRESS PERIOD    1 FOR COMPONENT   1
                     -------------------------------------------------------------------------------------------------------

                                         CUMULATIVE MASS [M]                                     MASS FOR THIS TIME STEP [M]
                                         -------------------                                    --------------
                      STREAM DEPLETION =  0.3922124E-04                      STREAM DEPLETION =  0.2631106E-07
                      INFLOW TO STREAM =   507.8253                          INFLOW TO STREAM =   8.325000    
                          GW TO STREAM =   60.94136                              GW TO STREAM =  0.9990391    
                         PRECIPITATION =   0.000000                             PRECIPITATION =   0.000000    
                                RUNOFF =   0.000000                                    RUNOFF =   0.000000    
                CONSTANT CONCENTRATION =   0.000000                    CONSTANT CONCENTRATION =   0.000000    
                             MASS GAIN =   0.000000                                 MASS GAIN =   0.000000    
                                         -------------------                                    --------------
                              TOTAL IN =   568.7667                                  TOTAL IN =   9.324039    

                   STREAM ACCUMULATION =  0.7095953E-03                   STREAM ACCUMULATION =  0.1116158E-04
                        STREAM OUTFLOW =   568.7661                            STREAM OUTFLOW =   9.324030    
                          STREAM TO GW =   0.000000                              STREAM TO GW =   0.000000    
                CONSTANT CONCENTRATION =   0.000000                    CONSTANT CONCENTRATION =   0.000000    
                           EVAPORATION =   0.000000                               EVAPORATION =   0.000000    
                             MASS LOSS =   0.000000                                 MASS LOSS =   0.000000    
                                         -------------------                                    --------------
                             TOTAL OUT =   568.7668                                 TOTAL OUT =   9.324041    

                        NET (IN - OUT) = -0.6103516E-04                        NET (IN - OUT) = -0.2861023E-05
                 DISCREPANCY (PERCENT) = -0.1073114E-04                 DISCREPANCY (PERCENT) = -0.3068437E-04
                                              FLOW ERR (QIN-QOUT-DV) = -0.9536743E-06 [L3/T]




 >>>>>>>>>>>>>>>>>>>>>>>>>>>>>>>>>>>>>>>>>>>>>>>>>>>>>>>FOR COMPONENT NO. 01<<<<<<<<<<<<<<<<<<<<<<<<<<<<<<<<<<<<<<<<<<<<<<<<<<<<<<<


                                            -------------------------------------------
                                                      TRANSPORT STEP NO.   61
                                            -------------------------------------------

 TOTAL ELAPSED TIME SINCE BEGINNING OF SIMULATION =   10980.00    D   
 .....................................................................

                     CUMULATIVE MASS BUDGETS AT END OF TRANSPORT STEP   61, TIME STEP    1, STRESS PERIOD    1
                     -----------------------------------------------------------------------------------------

                                                             IN                           OUT
                                                      ----------------             ----------------
                               CONSTANT CONCENTRATION:    0.000000                    0.000000    
                                        CONSTANT HEAD:    137.0549                   -76.11519    
                                               STREAM:    0.000000                   -60.94136    
                               MASS STOR (FLOW MODEL):   0.1851524E-02              -0.2506964E-07
                                MASS STORAGE (SOLUTE):    0.000000                    0.000000    
                            ---------------------------------------------------------------------------
                                              [TOTAL]:    137.0567     KG            -137.0565     KG  

                                                          NET (IN - OUT):   0.1525879E-03
                                                   DISCREPANCY (PERCENT):   0.1113320E-03
     2 CALLS TO GCG PACKAGE FOR TRANSPORT TIME STEP    62 IN FLOW TIME STEP     1 STRESS PERIOD     1
      2 TOTAL ITERATIONS
  MAXIMUM CONCENTRATION CHANGES FOR EACH ITERATION:
  MAX. CHANGE LAYER,ROW,COL MAX. CHANGE LAYER,ROW,COL MAX. CHANGE LAYER,ROW,COL MAX. CHANGE LAYER,ROW,COL MAX. CHANGE LAYER,ROW,COL
 ------------------------------------------------------------------------------------------------------------------------------------
    0.000     (  1,  1,  1)   0.000     (  1,  1,  1)


                     STREAM MASS BUDGETS AT END OF TRANSPORT STEP   62, TIME STEP    1, STRESS PERIOD    1 FOR COMPONENT   1
                     -------------------------------------------------------------------------------------------------------

                                         CUMULATIVE MASS [M]                                     MASS FOR THIS TIME STEP [M]
                                         -------------------                                    --------------
                      STREAM DEPLETION =  0.3924619E-04                      STREAM DEPLETION =  0.2495052E-07
                      INFLOW TO STREAM =   516.1503                          INFLOW TO STREAM =   8.325000    
                          GW TO STREAM =   61.94040                              GW TO STREAM =  0.9990391    
                         PRECIPITATION =   0.000000                             PRECIPITATION =   0.000000    
                                RUNOFF =   0.000000                                    RUNOFF =   0.000000    
                CONSTANT CONCENTRATION =   0.000000                    CONSTANT CONCENTRATION =   0.000000    
                             MASS GAIN =   0.000000                                 MASS GAIN =   0.000000    
                                         -------------------                                    --------------
                              TOTAL IN =   578.0908                                  TOTAL IN =   9.324039    

                   STREAM ACCUMULATION =  0.7207551E-03                   STREAM ACCUMULATION =  0.1115983E-04
                        STREAM OUTFLOW =   578.0901                            STREAM OUTFLOW =   9.324030    
                          STREAM TO GW =   0.000000                              STREAM TO GW =   0.000000    
                CONSTANT CONCENTRATION =   0.000000                    CONSTANT CONCENTRATION =   0.000000    
                           EVAPORATION =   0.000000                               EVAPORATION =   0.000000    
                             MASS LOSS =   0.000000                                 MASS LOSS =   0.000000    
                                         -------------------                                    --------------
                             TOTAL OUT =   578.0908                                 TOTAL OUT =   9.324041    

                        NET (IN - OUT) = -0.6103516E-04                        NET (IN - OUT) = -0.2861023E-05
                 DISCREPANCY (PERCENT) = -0.1055806E-04                 DISCREPANCY (PERCENT) = -0.3068437E-04
                                              FLOW ERR (QIN-QOUT-DV) = -0.9536743E-06 [L3/T]




 >>>>>>>>>>>>>>>>>>>>>>>>>>>>>>>>>>>>>>>>>>>>>>>>>>>>>>>FOR COMPONENT NO. 01<<<<<<<<<<<<<<<<<<<<<<<<<<<<<<<<<<<<<<<<<<<<<<<<<<<<<<<


                                            -------------------------------------------
                                                      TRANSPORT STEP NO.   62
                                            -------------------------------------------

 TOTAL ELAPSED TIME SINCE BEGINNING OF SIMULATION =   11160.00    D   
 .....................................................................

                     CUMULATIVE MASS BUDGETS AT END OF TRANSPORT STEP   62, TIME STEP    1, STRESS PERIOD    1
                     -----------------------------------------------------------------------------------------

                                                             IN                           OUT
                                                      ----------------             ----------------
                               CONSTANT CONCENTRATION:    0.000000                    0.000000    
                                        CONSTANT HEAD:    139.3017                   -77.36298    
                                               STREAM:    0.000000                   -61.94040    
                               MASS STOR (FLOW MODEL):   0.1881876E-02              -0.2548062E-07
                                MASS STORAGE (SOLUTE):    0.000000                    0.000000    
                            ---------------------------------------------------------------------------
                                              [TOTAL]:    139.3035     KG            -139.3034     KG  

                                                          NET (IN - OUT):   0.1525879E-03
                                                   DISCREPANCY (PERCENT):   0.1095363E-03
     2 CALLS TO GCG PACKAGE FOR TRANSPORT TIME STEP    63 IN FLOW TIME STEP     1 STRESS PERIOD     1
      2 TOTAL ITERATIONS
  MAXIMUM CONCENTRATION CHANGES FOR EACH ITERATION:
  MAX. CHANGE LAYER,ROW,COL MAX. CHANGE LAYER,ROW,COL MAX. CHANGE LAYER,ROW,COL MAX. CHANGE LAYER,ROW,COL MAX. CHANGE LAYER,ROW,COL
 ------------------------------------------------------------------------------------------------------------------------------------
    0.000     (  1,  1,  1)   0.000     (  1,  1,  1)


                     STREAM MASS BUDGETS AT END OF TRANSPORT STEP   63, TIME STEP    1, STRESS PERIOD    1 FOR COMPONENT   1
                     -------------------------------------------------------------------------------------------------------

                                         CUMULATIVE MASS [M]                                     MASS FOR THIS TIME STEP [M]
                                         -------------------                                    --------------
                      STREAM DEPLETION =  0.3927172E-04                      STREAM DEPLETION =  0.2552675E-07
                      INFLOW TO STREAM =   524.4753                          INFLOW TO STREAM =   8.325000    
                          GW TO STREAM =   62.93944                              GW TO STREAM =  0.9990391    
                         PRECIPITATION =   0.000000                             PRECIPITATION =   0.000000    
                                RUNOFF =   0.000000                                    RUNOFF =   0.000000    
                CONSTANT CONCENTRATION =   0.000000                    CONSTANT CONCENTRATION =   0.000000    
                             MASS GAIN =   0.000000                                 MASS GAIN =   0.000000    
                                         -------------------                                    --------------
                              TOTAL IN =   587.4148                                  TOTAL IN =   9.324039    

                   STREAM ACCUMULATION =  0.7319128E-03                   STREAM ACCUMULATION =  0.1115763E-04
                        STREAM OUTFLOW =   587.4141                            STREAM OUTFLOW =   9.324030    
                          STREAM TO GW =   0.000000                              STREAM TO GW =   0.000000    
                CONSTANT CONCENTRATION =   0.000000                    CONSTANT CONCENTRATION =   0.000000    
                           EVAPORATION =   0.000000                               EVAPORATION =   0.000000    
                             MASS LOSS =   0.000000                                 MASS LOSS =   0.000000    
                                         -------------------                                    --------------
                             TOTAL OUT =   587.4149                                 TOTAL OUT =   9.324041    

                        NET (IN - OUT) = -0.6103516E-04                        NET (IN - OUT) = -0.2861023E-05
                 DISCREPANCY (PERCENT) = -0.1039047E-04                 DISCREPANCY (PERCENT) = -0.3068437E-04
                                              FLOW ERR (QIN-QOUT-DV) = -0.9536743E-06 [L3/T]




 >>>>>>>>>>>>>>>>>>>>>>>>>>>>>>>>>>>>>>>>>>>>>>>>>>>>>>>FOR COMPONENT NO. 01<<<<<<<<<<<<<<<<<<<<<<<<<<<<<<<<<<<<<<<<<<<<<<<<<<<<<<<


                                            -------------------------------------------
                                                      TRANSPORT STEP NO.   63
                                            -------------------------------------------

 TOTAL ELAPSED TIME SINCE BEGINNING OF SIMULATION =   11340.00    D   
 .....................................................................

                     CUMULATIVE MASS BUDGETS AT END OF TRANSPORT STEP   63, TIME STEP    1, STRESS PERIOD    1
                     -----------------------------------------------------------------------------------------

                                                             IN                           OUT
                                                      ----------------             ----------------
                               CONSTANT CONCENTRATION:    0.000000                    0.000000    
                                        CONSTANT HEAD:    141.5484                   -78.61076    
                                               STREAM:    0.000000                   -62.93944    
                               MASS STOR (FLOW MODEL):   0.1912229E-02              -0.2589160E-07
                                MASS STORAGE (SOLUTE):    0.000000                    0.000000    
                            ---------------------------------------------------------------------------
                                              [TOTAL]:    141.5504     KG            -141.5502     KG  

                                                          NET (IN - OUT):   0.1525879E-03
                                                   DISCREPANCY (PERCENT):   0.1077977E-03
     2 CALLS TO GCG PACKAGE FOR TRANSPORT TIME STEP    64 IN FLOW TIME STEP     1 STRESS PERIOD     1
      2 TOTAL ITERATIONS
  MAXIMUM CONCENTRATION CHANGES FOR EACH ITERATION:
  MAX. CHANGE LAYER,ROW,COL MAX. CHANGE LAYER,ROW,COL MAX. CHANGE LAYER,ROW,COL MAX. CHANGE LAYER,ROW,COL MAX. CHANGE LAYER,ROW,COL
 ------------------------------------------------------------------------------------------------------------------------------------
    0.000     (  1,  1,  1)   0.000     (  1,  1,  1)


                     STREAM MASS BUDGETS AT END OF TRANSPORT STEP   64, TIME STEP    1, STRESS PERIOD    1 FOR COMPONENT   1
                     -------------------------------------------------------------------------------------------------------

                                         CUMULATIVE MASS [M]                                     MASS FOR THIS TIME STEP [M]
                                         -------------------                                    --------------
                      STREAM DEPLETION =  0.3929824E-04                      STREAM DEPLETION =  0.2652475E-07
                      INFLOW TO STREAM =   532.8004                          INFLOW TO STREAM =   8.325000    
                          GW TO STREAM =   63.93848                              GW TO STREAM =  0.9990391    
                         PRECIPITATION =   0.000000                             PRECIPITATION =   0.000000    
                                RUNOFF =   0.000000                                    RUNOFF =   0.000000    
                CONSTANT CONCENTRATION =   0.000000                    CONSTANT CONCENTRATION =   0.000000    
                             MASS GAIN =   0.000000                                 MASS GAIN =   0.000000    
                                         -------------------                                    --------------
                              TOTAL IN =   596.7389                                  TOTAL IN =   9.324039    

                   STREAM ACCUMULATION =  0.7430657E-03                   STREAM ACCUMULATION =  0.1115290E-04
                        STREAM OUTFLOW =   596.7382                            STREAM OUTFLOW =   9.324030    
                          STREAM TO GW =   0.000000                              STREAM TO GW =   0.000000    
                CONSTANT CONCENTRATION =   0.000000                    CONSTANT CONCENTRATION =   0.000000    
                           EVAPORATION =   0.000000                               EVAPORATION =   0.000000    
                             MASS LOSS =   0.000000                                 MASS LOSS =   0.000000    
                                         -------------------                                    --------------
                             TOTAL OUT =   596.7389                                 TOTAL OUT =   9.324041    

                        NET (IN - OUT) =   0.000000                            NET (IN - OUT) = -0.2861023E-05
                 DISCREPANCY (PERCENT) =   0.000000                     DISCREPANCY (PERCENT) = -0.3068437E-04
                                              FLOW ERR (QIN-QOUT-DV) = -0.9536743E-06 [L3/T]




 >>>>>>>>>>>>>>>>>>>>>>>>>>>>>>>>>>>>>>>>>>>>>>>>>>>>>>>FOR COMPONENT NO. 01<<<<<<<<<<<<<<<<<<<<<<<<<<<<<<<<<<<<<<<<<<<<<<<<<<<<<<<


                                            -------------------------------------------
                                                      TRANSPORT STEP NO.   64
                                            -------------------------------------------

 TOTAL ELAPSED TIME SINCE BEGINNING OF SIMULATION =   11520.00    D   
 .....................................................................

                     CUMULATIVE MASS BUDGETS AT END OF TRANSPORT STEP   64, TIME STEP    1, STRESS PERIOD    1
                     -----------------------------------------------------------------------------------------

                                                             IN                           OUT
                                                      ----------------             ----------------
                               CONSTANT CONCENTRATION:    0.000000                    0.000000    
                                        CONSTANT HEAD:    143.7952                   -79.85855    
                                               STREAM:    0.000000                   -63.93848    
                               MASS STOR (FLOW MODEL):   0.1942582E-02              -0.2630258E-07
                                MASS STORAGE (SOLUTE):    0.000000                    0.000000    
                            ---------------------------------------------------------------------------
                                              [TOTAL]:    143.7972     KG            -143.7970     KG  

                                                          NET (IN - OUT):   0.1525879E-03
                                                   DISCREPANCY (PERCENT):   0.1061133E-03
     2 CALLS TO GCG PACKAGE FOR TRANSPORT TIME STEP    65 IN FLOW TIME STEP     1 STRESS PERIOD     1
      2 TOTAL ITERATIONS
  MAXIMUM CONCENTRATION CHANGES FOR EACH ITERATION:
  MAX. CHANGE LAYER,ROW,COL MAX. CHANGE LAYER,ROW,COL MAX. CHANGE LAYER,ROW,COL MAX. CHANGE LAYER,ROW,COL MAX. CHANGE LAYER,ROW,COL
 ------------------------------------------------------------------------------------------------------------------------------------
    0.000     (  1,  1,  1)   0.000     (  1,  1,  1)


                     STREAM MASS BUDGETS AT END OF TRANSPORT STEP   65, TIME STEP    1, STRESS PERIOD    1 FOR COMPONENT   1
                     -------------------------------------------------------------------------------------------------------

                                         CUMULATIVE MASS [M]                                     MASS FOR THIS TIME STEP [M]
                                         -------------------                                    --------------
                      STREAM DEPLETION =  0.3932510E-04                      STREAM DEPLETION =  0.2686295E-07
                      INFLOW TO STREAM =   541.1254                          INFLOW TO STREAM =   8.325000    
                          GW TO STREAM =   64.93752                              GW TO STREAM =  0.9990391    
                         PRECIPITATION =   0.000000                             PRECIPITATION =   0.000000    
                                RUNOFF =   0.000000                                    RUNOFF =   0.000000    
                CONSTANT CONCENTRATION =   0.000000                    CONSTANT CONCENTRATION =   0.000000    
                             MASS GAIN =   0.000000                                 MASS GAIN =   0.000000    
                                         -------------------                                    --------------
                              TOTAL IN =   606.0629                                  TOTAL IN =   9.324039    

                   STREAM ACCUMULATION =  0.7542101E-03                   STREAM ACCUMULATION =  0.1114444E-04
                        STREAM OUTFLOW =   606.0622                            STREAM OUTFLOW =   9.324030    
                          STREAM TO GW =   0.000000                              STREAM TO GW =   0.000000    
                CONSTANT CONCENTRATION =   0.000000                    CONSTANT CONCENTRATION =   0.000000    
                           EVAPORATION =   0.000000                               EVAPORATION =   0.000000    
                             MASS LOSS =   0.000000                                 MASS LOSS =   0.000000    
                                         -------------------                                    --------------
                             TOTAL OUT =   606.0629                                 TOTAL OUT =   9.324041    

                        NET (IN - OUT) =   0.000000                            NET (IN - OUT) = -0.2861023E-05
                 DISCREPANCY (PERCENT) =   0.000000                     DISCREPANCY (PERCENT) = -0.3068437E-04
                                              FLOW ERR (QIN-QOUT-DV) = -0.9536743E-06 [L3/T]




 >>>>>>>>>>>>>>>>>>>>>>>>>>>>>>>>>>>>>>>>>>>>>>>>>>>>>>>FOR COMPONENT NO. 01<<<<<<<<<<<<<<<<<<<<<<<<<<<<<<<<<<<<<<<<<<<<<<<<<<<<<<<


                                            -------------------------------------------
                                                      TRANSPORT STEP NO.   65
                                            -------------------------------------------

 TOTAL ELAPSED TIME SINCE BEGINNING OF SIMULATION =   11700.00    D   
 .....................................................................

                     CUMULATIVE MASS BUDGETS AT END OF TRANSPORT STEP   65, TIME STEP    1, STRESS PERIOD    1
                     -----------------------------------------------------------------------------------------

                                                             IN                           OUT
                                                      ----------------             ----------------
                               CONSTANT CONCENTRATION:    0.000000                    0.000000    
                                        CONSTANT HEAD:    146.0420                   -81.10634    
                                               STREAM:    0.000000                   -64.93752    
                               MASS STOR (FLOW MODEL):   0.1972935E-02              -0.2671356E-07
                                MASS STORAGE (SOLUTE):    0.000000                    0.000000    
                            ---------------------------------------------------------------------------
                                              [TOTAL]:    146.0440     KG            -146.0439     KG  

                                                          NET (IN - OUT):   0.1525879E-03
                                                   DISCREPANCY (PERCENT):   0.1044808E-03
     2 CALLS TO GCG PACKAGE FOR TRANSPORT TIME STEP    66 IN FLOW TIME STEP     1 STRESS PERIOD     1
      2 TOTAL ITERATIONS
  MAXIMUM CONCENTRATION CHANGES FOR EACH ITERATION:
  MAX. CHANGE LAYER,ROW,COL MAX. CHANGE LAYER,ROW,COL MAX. CHANGE LAYER,ROW,COL MAX. CHANGE LAYER,ROW,COL MAX. CHANGE LAYER,ROW,COL
 ------------------------------------------------------------------------------------------------------------------------------------
    0.000     (  1,  1,  1)   0.000     (  1,  1,  1)


                     STREAM MASS BUDGETS AT END OF TRANSPORT STEP   66, TIME STEP    1, STRESS PERIOD    1 FOR COMPONENT   1
                     -------------------------------------------------------------------------------------------------------

                                         CUMULATIVE MASS [M]                                     MASS FOR THIS TIME STEP [M]
                                         -------------------                                    --------------
                      STREAM DEPLETION =  0.3935279E-04                      STREAM DEPLETION =  0.2769047E-07
                      INFLOW TO STREAM =   549.4504                          INFLOW TO STREAM =   8.325000    
                          GW TO STREAM =   65.93656                              GW TO STREAM =  0.9990391    
                         PRECIPITATION =   0.000000                             PRECIPITATION =   0.000000    
                                RUNOFF =   0.000000                                    RUNOFF =   0.000000    
                CONSTANT CONCENTRATION =   0.000000                    CONSTANT CONCENTRATION =   0.000000    
                             MASS GAIN =   0.000000                                 MASS GAIN =   0.000000    
                                         -------------------                                    --------------
                              TOTAL IN =   615.3870                                  TOTAL IN =   9.324039    

                   STREAM ACCUMULATION =  0.7653429E-03                   STREAM ACCUMULATION =  0.1113280E-04
                        STREAM OUTFLOW =   615.3862                            STREAM OUTFLOW =   9.324030    
                          STREAM TO GW =   0.000000                              STREAM TO GW =   0.000000    
                CONSTANT CONCENTRATION =   0.000000                    CONSTANT CONCENTRATION =   0.000000    
                           EVAPORATION =   0.000000                               EVAPORATION =   0.000000    
                             MASS LOSS =   0.000000                                 MASS LOSS =   0.000000    
                                         -------------------                                    --------------
                             TOTAL OUT =   615.3870                                 TOTAL OUT =   9.324041    

                        NET (IN - OUT) = -0.6103516E-04                        NET (IN - OUT) = -0.2861023E-05
                 DISCREPANCY (PERCENT) = -0.9918175E-05                 DISCREPANCY (PERCENT) = -0.3068437E-04
                                              FLOW ERR (QIN-QOUT-DV) = -0.9536743E-06 [L3/T]




 >>>>>>>>>>>>>>>>>>>>>>>>>>>>>>>>>>>>>>>>>>>>>>>>>>>>>>>FOR COMPONENT NO. 01<<<<<<<<<<<<<<<<<<<<<<<<<<<<<<<<<<<<<<<<<<<<<<<<<<<<<<<


                                            -------------------------------------------
                                                      TRANSPORT STEP NO.   66
                                            -------------------------------------------

 TOTAL ELAPSED TIME SINCE BEGINNING OF SIMULATION =   11880.00    D   
 .....................................................................

                     CUMULATIVE MASS BUDGETS AT END OF TRANSPORT STEP   66, TIME STEP    1, STRESS PERIOD    1
                     -----------------------------------------------------------------------------------------

                                                             IN                           OUT
                                                      ----------------             ----------------
                               CONSTANT CONCENTRATION:    0.000000                    0.000000    
                                        CONSTANT HEAD:    148.2888                   -82.35413    
                                               STREAM:    0.000000                   -65.93656    
                               MASS STOR (FLOW MODEL):   0.2003288E-02              -0.2712453E-07
                                MASS STORAGE (SOLUTE):    0.000000                    0.000000    
                            ---------------------------------------------------------------------------
                                              [TOTAL]:    148.2908     KG            -148.2907     KG  

                                                          NET (IN - OUT):   0.1525879E-03
                                                   DISCREPANCY (PERCENT):   0.1028978E-03
     2 CALLS TO GCG PACKAGE FOR TRANSPORT TIME STEP    67 IN FLOW TIME STEP     1 STRESS PERIOD     1
      2 TOTAL ITERATIONS
  MAXIMUM CONCENTRATION CHANGES FOR EACH ITERATION:
  MAX. CHANGE LAYER,ROW,COL MAX. CHANGE LAYER,ROW,COL MAX. CHANGE LAYER,ROW,COL MAX. CHANGE LAYER,ROW,COL MAX. CHANGE LAYER,ROW,COL
 ------------------------------------------------------------------------------------------------------------------------------------
    0.000     (  1,  1,  1)   0.000     (  1,  1,  1)


                     STREAM MASS BUDGETS AT END OF TRANSPORT STEP   67, TIME STEP    1, STRESS PERIOD    1 FOR COMPONENT   1
                     -------------------------------------------------------------------------------------------------------

                                         CUMULATIVE MASS [M]                                     MASS FOR THIS TIME STEP [M]
                                         -------------------                                    --------------
                      STREAM DEPLETION =  0.3938076E-04                      STREAM DEPLETION =  0.2797405E-07
                      INFLOW TO STREAM =   557.7754                          INFLOW TO STREAM =   8.325000    
                          GW TO STREAM =   66.93560                              GW TO STREAM =  0.9990391    
                         PRECIPITATION =   0.000000                             PRECIPITATION =   0.000000    
                                RUNOFF =   0.000000                                    RUNOFF =   0.000000    
                CONSTANT CONCENTRATION =   0.000000                    CONSTANT CONCENTRATION =   0.000000    
                             MASS GAIN =   0.000000                                 MASS GAIN =   0.000000    
                                         -------------------                                    --------------
                              TOTAL IN =   624.7111                                  TOTAL IN =   9.324039    

                   STREAM ACCUMULATION =  0.7764597E-03                   STREAM ACCUMULATION =  0.1111678E-04
                        STREAM OUTFLOW =   624.7103                            STREAM OUTFLOW =   9.324030    
                          STREAM TO GW =   0.000000                              STREAM TO GW =   0.000000    
                CONSTANT CONCENTRATION =   0.000000                    CONSTANT CONCENTRATION =   0.000000    
                           EVAPORATION =   0.000000                               EVAPORATION =   0.000000    
                             MASS LOSS =   0.000000                                 MASS LOSS =   0.000000    
                                         -------------------                                    --------------
                             TOTAL OUT =   624.7111                                 TOTAL OUT =   9.324041    

                        NET (IN - OUT) =   0.000000                            NET (IN - OUT) = -0.2861023E-05
                 DISCREPANCY (PERCENT) =   0.000000                     DISCREPANCY (PERCENT) = -0.3068437E-04
                                              FLOW ERR (QIN-QOUT-DV) = -0.9536743E-06 [L3/T]




 >>>>>>>>>>>>>>>>>>>>>>>>>>>>>>>>>>>>>>>>>>>>>>>>>>>>>>>FOR COMPONENT NO. 01<<<<<<<<<<<<<<<<<<<<<<<<<<<<<<<<<<<<<<<<<<<<<<<<<<<<<<<


                                            -------------------------------------------
                                                      TRANSPORT STEP NO.   67
                                            -------------------------------------------

 TOTAL ELAPSED TIME SINCE BEGINNING OF SIMULATION =   12060.00    D   
 .....................................................................

                     CUMULATIVE MASS BUDGETS AT END OF TRANSPORT STEP   67, TIME STEP    1, STRESS PERIOD    1
                     -----------------------------------------------------------------------------------------

                                                             IN                           OUT
                                                      ----------------             ----------------
                               CONSTANT CONCENTRATION:    0.000000                    0.000000    
                                        CONSTANT HEAD:    150.5356                   -83.60191    
                                               STREAM:    0.000000                   -66.93560    
                               MASS STOR (FLOW MODEL):   0.2033640E-02              -0.2753551E-07
                                MASS STORAGE (SOLUTE):    0.000000                    0.000000    
                            ---------------------------------------------------------------------------
                                              [TOTAL]:    150.5377     KG            -150.5375     KG  

                                                          NET (IN - OUT):   0.1525879E-03
                                                   DISCREPANCY (PERCENT):   0.1013620E-03
     2 CALLS TO GCG PACKAGE FOR TRANSPORT TIME STEP    68 IN FLOW TIME STEP     1 STRESS PERIOD     1
      2 TOTAL ITERATIONS
  MAXIMUM CONCENTRATION CHANGES FOR EACH ITERATION:
  MAX. CHANGE LAYER,ROW,COL MAX. CHANGE LAYER,ROW,COL MAX. CHANGE LAYER,ROW,COL MAX. CHANGE LAYER,ROW,COL MAX. CHANGE LAYER,ROW,COL
 ------------------------------------------------------------------------------------------------------------------------------------
    0.000     (  1,  1,  1)   0.000     (  1,  1,  1)


                     STREAM MASS BUDGETS AT END OF TRANSPORT STEP   68, TIME STEP    1, STRESS PERIOD    1 FOR COMPONENT   1
                     -------------------------------------------------------------------------------------------------------

                                         CUMULATIVE MASS [M]                                     MASS FOR THIS TIME STEP [M]
                                         -------------------                                    --------------
                      STREAM DEPLETION =  0.3940946E-04                      STREAM DEPLETION =  0.2869441E-07
                      INFLOW TO STREAM =   566.1004                          INFLOW TO STREAM =   8.325000    
                          GW TO STREAM =   67.93464                              GW TO STREAM =  0.9990391    
                         PRECIPITATION =   0.000000                             PRECIPITATION =   0.000000    
                                RUNOFF =   0.000000                                    RUNOFF =   0.000000    
                CONSTANT CONCENTRATION =   0.000000                    CONSTANT CONCENTRATION =   0.000000    
                             MASS GAIN =   0.000000                                 MASS GAIN =   0.000000    
                                         -------------------                                    --------------
                              TOTAL IN =   634.0351                                  TOTAL IN =   9.324039    

                   STREAM ACCUMULATION =  0.7875565E-03                   STREAM ACCUMULATION =  0.1109674E-04
                        STREAM OUTFLOW =   634.0343                            STREAM OUTFLOW =   9.324030    
                          STREAM TO GW =   0.000000                              STREAM TO GW =   0.000000    
                CONSTANT CONCENTRATION =   0.000000                    CONSTANT CONCENTRATION =   0.000000    
                           EVAPORATION =   0.000000                               EVAPORATION =   0.000000    
                             MASS LOSS =   0.000000                                 MASS LOSS =   0.000000    
                                         -------------------                                    --------------
                             TOTAL OUT =   634.0351                                 TOTAL OUT =   9.324041    

                        NET (IN - OUT) =   0.000000                            NET (IN - OUT) = -0.2861023E-05
                 DISCREPANCY (PERCENT) =   0.000000                     DISCREPANCY (PERCENT) = -0.3068437E-04
                                              FLOW ERR (QIN-QOUT-DV) = -0.9536743E-06 [L3/T]




 >>>>>>>>>>>>>>>>>>>>>>>>>>>>>>>>>>>>>>>>>>>>>>>>>>>>>>>FOR COMPONENT NO. 01<<<<<<<<<<<<<<<<<<<<<<<<<<<<<<<<<<<<<<<<<<<<<<<<<<<<<<<


                                            -------------------------------------------
                                                      TRANSPORT STEP NO.   68
                                            -------------------------------------------

 TOTAL ELAPSED TIME SINCE BEGINNING OF SIMULATION =   12240.00    D   
 .....................................................................

                     CUMULATIVE MASS BUDGETS AT END OF TRANSPORT STEP   68, TIME STEP    1, STRESS PERIOD    1
                     -----------------------------------------------------------------------------------------

                                                             IN                           OUT
                                                      ----------------             ----------------
                               CONSTANT CONCENTRATION:    0.000000                    0.000000    
                                        CONSTANT HEAD:    152.7824                   -84.84970    
                                               STREAM:    0.000000                   -67.93464    
                               MASS STOR (FLOW MODEL):   0.2063993E-02              -0.2794649E-07
                                MASS STORAGE (SOLUTE):    0.000000                    0.000000    
                            ---------------------------------------------------------------------------
                                              [TOTAL]:    152.7845     KG            -152.7843     KG  

                                                          NET (IN - OUT):   0.1525879E-03
                                                   DISCREPANCY (PERCENT):   0.9987137E-04
     2 CALLS TO GCG PACKAGE FOR TRANSPORT TIME STEP    69 IN FLOW TIME STEP     1 STRESS PERIOD     1
      2 TOTAL ITERATIONS
  MAXIMUM CONCENTRATION CHANGES FOR EACH ITERATION:
  MAX. CHANGE LAYER,ROW,COL MAX. CHANGE LAYER,ROW,COL MAX. CHANGE LAYER,ROW,COL MAX. CHANGE LAYER,ROW,COL MAX. CHANGE LAYER,ROW,COL
 ------------------------------------------------------------------------------------------------------------------------------------
    0.000     (  1,  1,  1)   0.000     (  1,  1,  1)


                     STREAM MASS BUDGETS AT END OF TRANSPORT STEP   69, TIME STEP    1, STRESS PERIOD    1 FOR COMPONENT   1
                     -------------------------------------------------------------------------------------------------------

                                         CUMULATIVE MASS [M]                                     MASS FOR THIS TIME STEP [M]
                                         -------------------                                    --------------
                      STREAM DEPLETION =  0.3943831E-04                      STREAM DEPLETION =  0.2885083E-07
                      INFLOW TO STREAM =   574.4254                          INFLOW TO STREAM =   8.325000    
                          GW TO STREAM =   68.93368                              GW TO STREAM =  0.9990391    
                         PRECIPITATION =   0.000000                             PRECIPITATION =   0.000000    
                                RUNOFF =   0.000000                                    RUNOFF =   0.000000    
                CONSTANT CONCENTRATION =   0.000000                    CONSTANT CONCENTRATION =   0.000000    
                             MASS GAIN =   0.000000                                 MASS GAIN =   0.000000    
                                         -------------------                                    --------------
                              TOTAL IN =   643.3591                                  TOTAL IN =   9.324039    

                   STREAM ACCUMULATION =  0.7986280E-03                   STREAM ACCUMULATION =  0.1107150E-04
                        STREAM OUTFLOW =   643.3583                            STREAM OUTFLOW =   9.324030    
                          STREAM TO GW =   0.000000                              STREAM TO GW =   0.000000    
                CONSTANT CONCENTRATION =   0.000000                    CONSTANT CONCENTRATION =   0.000000    
                           EVAPORATION =   0.000000                               EVAPORATION =   0.000000    
                             MASS LOSS =   0.000000                                 MASS LOSS =   0.000000    
                                         -------------------                                    --------------
                             TOTAL OUT =   643.3591                                 TOTAL OUT =   9.324041    

                        NET (IN - OUT) =   0.000000                            NET (IN - OUT) = -0.2861023E-05
                 DISCREPANCY (PERCENT) =   0.000000                     DISCREPANCY (PERCENT) = -0.3068437E-04
                                              FLOW ERR (QIN-QOUT-DV) = -0.9536743E-06 [L3/T]




 >>>>>>>>>>>>>>>>>>>>>>>>>>>>>>>>>>>>>>>>>>>>>>>>>>>>>>>FOR COMPONENT NO. 01<<<<<<<<<<<<<<<<<<<<<<<<<<<<<<<<<<<<<<<<<<<<<<<<<<<<<<<


                                            -------------------------------------------
                                                      TRANSPORT STEP NO.   69
                                            -------------------------------------------

 TOTAL ELAPSED TIME SINCE BEGINNING OF SIMULATION =   12420.00    D   
 .....................................................................

                     CUMULATIVE MASS BUDGETS AT END OF TRANSPORT STEP   69, TIME STEP    1, STRESS PERIOD    1
                     -----------------------------------------------------------------------------------------

                                                             IN                           OUT
                                                      ----------------             ----------------
                               CONSTANT CONCENTRATION:    0.000000                    0.000000    
                                        CONSTANT HEAD:    155.0292                   -86.09749    
                                               STREAM:    0.000000                   -68.93368    
                               MASS STOR (FLOW MODEL):   0.2094346E-02              -0.2835747E-07
                                MASS STORAGE (SOLUTE):    0.000000                    0.000000    
                            ---------------------------------------------------------------------------
                                              [TOTAL]:    155.0313     KG            -155.0312     KG  

                                                          NET (IN - OUT):   0.1525879E-03
                                                   DISCREPANCY (PERCENT):   0.9842397E-04
     2 CALLS TO GCG PACKAGE FOR TRANSPORT TIME STEP    70 IN FLOW TIME STEP     1 STRESS PERIOD     1
      2 TOTAL ITERATIONS
  MAXIMUM CONCENTRATION CHANGES FOR EACH ITERATION:
  MAX. CHANGE LAYER,ROW,COL MAX. CHANGE LAYER,ROW,COL MAX. CHANGE LAYER,ROW,COL MAX. CHANGE LAYER,ROW,COL MAX. CHANGE LAYER,ROW,COL
 ------------------------------------------------------------------------------------------------------------------------------------
    0.000     (  1,  1,  1)   0.000     (  1,  1,  1)


                     STREAM MASS BUDGETS AT END OF TRANSPORT STEP   70, TIME STEP    1, STRESS PERIOD    1 FOR COMPONENT   1
                     -------------------------------------------------------------------------------------------------------

                                         CUMULATIVE MASS [M]                                     MASS FOR THIS TIME STEP [M]
                                         -------------------                                    --------------
                      STREAM DEPLETION =  0.3946770E-04                      STREAM DEPLETION =  0.2939597E-07
                      INFLOW TO STREAM =   582.7504                          INFLOW TO STREAM =   8.325000    
                          GW TO STREAM =   69.93272                              GW TO STREAM =  0.9990391    
                         PRECIPITATION =   0.000000                             PRECIPITATION =   0.000000    
                                RUNOFF =   0.000000                                    RUNOFF =   0.000000    
                CONSTANT CONCENTRATION =   0.000000                    CONSTANT CONCENTRATION =   0.000000    
                             MASS GAIN =   0.000000                                 MASS GAIN =   0.000000    
                                         -------------------                                    --------------
                              TOTAL IN =   652.6832                                  TOTAL IN =   9.324039    

                   STREAM ACCUMULATION =  0.8096694E-03                   STREAM ACCUMULATION =  0.1104142E-04
                        STREAM OUTFLOW =   652.6824                            STREAM OUTFLOW =   9.324030    
                          STREAM TO GW =   0.000000                              STREAM TO GW =   0.000000    
                CONSTANT CONCENTRATION =   0.000000                    CONSTANT CONCENTRATION =   0.000000    
                           EVAPORATION =   0.000000                               EVAPORATION =   0.000000    
                             MASS LOSS =   0.000000                                 MASS LOSS =   0.000000    
                                         -------------------                                    --------------
                             TOTAL OUT =   652.6832                                 TOTAL OUT =   9.324041    

                        NET (IN - OUT) =   0.000000                            NET (IN - OUT) = -0.2861023E-05
                 DISCREPANCY (PERCENT) =   0.000000                     DISCREPANCY (PERCENT) = -0.3068437E-04
                                              FLOW ERR (QIN-QOUT-DV) = -0.9536743E-06 [L3/T]




 >>>>>>>>>>>>>>>>>>>>>>>>>>>>>>>>>>>>>>>>>>>>>>>>>>>>>>>FOR COMPONENT NO. 01<<<<<<<<<<<<<<<<<<<<<<<<<<<<<<<<<<<<<<<<<<<<<<<<<<<<<<<


                                            -------------------------------------------
                                                      TRANSPORT STEP NO.   70
                                            -------------------------------------------

 TOTAL ELAPSED TIME SINCE BEGINNING OF SIMULATION =   12600.00    D   
 .....................................................................

                     CUMULATIVE MASS BUDGETS AT END OF TRANSPORT STEP   70, TIME STEP    1, STRESS PERIOD    1
                     -----------------------------------------------------------------------------------------

                                                             IN                           OUT
                                                      ----------------             ----------------
                               CONSTANT CONCENTRATION:    0.000000                    0.000000    
                                        CONSTANT HEAD:    157.2760                   -87.34528    
                                               STREAM:    0.000000                   -69.93272    
                               MASS STOR (FLOW MODEL):   0.2124699E-02              -0.2876845E-07
                                MASS STORAGE (SOLUTE):    0.000000                    0.000000    
                            ---------------------------------------------------------------------------
                                              [TOTAL]:    157.2781     KG            -157.2780     KG  

                                                          NET (IN - OUT):   0.1525879E-03
                                                   DISCREPANCY (PERCENT):   0.9701791E-04
     2 CALLS TO GCG PACKAGE FOR TRANSPORT TIME STEP    71 IN FLOW TIME STEP     1 STRESS PERIOD     1
      2 TOTAL ITERATIONS
  MAXIMUM CONCENTRATION CHANGES FOR EACH ITERATION:
  MAX. CHANGE LAYER,ROW,COL MAX. CHANGE LAYER,ROW,COL MAX. CHANGE LAYER,ROW,COL MAX. CHANGE LAYER,ROW,COL MAX. CHANGE LAYER,ROW,COL
 ------------------------------------------------------------------------------------------------------------------------------------
    0.000     (  1,  1,  1)   0.000     (  1,  1,  1)


                     STREAM MASS BUDGETS AT END OF TRANSPORT STEP   71, TIME STEP    1, STRESS PERIOD    1 FOR COMPONENT   1
                     -------------------------------------------------------------------------------------------------------

                                         CUMULATIVE MASS [M]                                     MASS FOR THIS TIME STEP [M]
                                         -------------------                                    --------------
                      STREAM DEPLETION =  0.3949721E-04                      STREAM DEPLETION =  0.2951132E-07
                      INFLOW TO STREAM =   591.0754                          INFLOW TO STREAM =   8.325000    
                          GW TO STREAM =   70.93176                              GW TO STREAM =  0.9990391    
                         PRECIPITATION =   0.000000                             PRECIPITATION =   0.000000    
                                RUNOFF =   0.000000                                    RUNOFF =   0.000000    
                CONSTANT CONCENTRATION =   0.000000                    CONSTANT CONCENTRATION =   0.000000    
                             MASS GAIN =   0.000000                                 MASS GAIN =   0.000000    
                                         -------------------                                    --------------
                              TOTAL IN =   662.0072                                  TOTAL IN =   9.324039    

                   STREAM ACCUMULATION =  0.8206748E-03                   STREAM ACCUMULATION =  0.1100544E-04
                        STREAM OUTFLOW =   662.0064                            STREAM OUTFLOW =   9.324030    
                          STREAM TO GW =   0.000000                              STREAM TO GW =   0.000000    
                CONSTANT CONCENTRATION =   0.000000                    CONSTANT CONCENTRATION =   0.000000    
                           EVAPORATION =   0.000000                               EVAPORATION =   0.000000    
                             MASS LOSS =   0.000000                                 MASS LOSS =   0.000000    
                                         -------------------                                    --------------
                             TOTAL OUT =   662.0072                                 TOTAL OUT =   9.324041    

                        NET (IN - OUT) =   0.000000                            NET (IN - OUT) = -0.2861023E-05
                 DISCREPANCY (PERCENT) =   0.000000                     DISCREPANCY (PERCENT) = -0.3068437E-04
                                              FLOW ERR (QIN-QOUT-DV) = -0.9536743E-06 [L3/T]




 >>>>>>>>>>>>>>>>>>>>>>>>>>>>>>>>>>>>>>>>>>>>>>>>>>>>>>>FOR COMPONENT NO. 01<<<<<<<<<<<<<<<<<<<<<<<<<<<<<<<<<<<<<<<<<<<<<<<<<<<<<<<


                                            -------------------------------------------
                                                      TRANSPORT STEP NO.   71
                                            -------------------------------------------

 TOTAL ELAPSED TIME SINCE BEGINNING OF SIMULATION =   12780.00    D   
 .....................................................................

                     CUMULATIVE MASS BUDGETS AT END OF TRANSPORT STEP   71, TIME STEP    1, STRESS PERIOD    1
                     -----------------------------------------------------------------------------------------

                                                             IN                           OUT
                                                      ----------------             ----------------
                               CONSTANT CONCENTRATION:    0.000000                    0.000000    
                                        CONSTANT HEAD:    159.5228                   -88.59306    
                                               STREAM:    0.000000                   -70.93176    
                               MASS STOR (FLOW MODEL):   0.2155051E-02              -0.2917942E-07
                                MASS STORAGE (SOLUTE):    0.000000                    0.000000    
                            ---------------------------------------------------------------------------
                                              [TOTAL]:    159.5250     KG            -159.5248     KG  

                                                          NET (IN - OUT):   0.1525879E-03
                                                   DISCREPANCY (PERCENT):   0.9565146E-04
     2 CALLS TO GCG PACKAGE FOR TRANSPORT TIME STEP    72 IN FLOW TIME STEP     1 STRESS PERIOD     1
      2 TOTAL ITERATIONS
  MAXIMUM CONCENTRATION CHANGES FOR EACH ITERATION:
  MAX. CHANGE LAYER,ROW,COL MAX. CHANGE LAYER,ROW,COL MAX. CHANGE LAYER,ROW,COL MAX. CHANGE LAYER,ROW,COL MAX. CHANGE LAYER,ROW,COL
 ------------------------------------------------------------------------------------------------------------------------------------
    0.000     (  1,  1,  1)   0.000     (  1,  1,  1)


                     STREAM MASS BUDGETS AT END OF TRANSPORT STEP   72, TIME STEP    1, STRESS PERIOD    1 FOR COMPONENT   1
                     -------------------------------------------------------------------------------------------------------

                                         CUMULATIVE MASS [M]                                     MASS FOR THIS TIME STEP [M]
                                         -------------------                                    --------------
                      STREAM DEPLETION =  0.3952714E-04                      STREAM DEPLETION =  0.2992736E-07
                      INFLOW TO STREAM =   599.4005                          INFLOW TO STREAM =   8.325000    
                          GW TO STREAM =   71.93079                              GW TO STREAM =  0.9990391    
                         PRECIPITATION =   0.000000                             PRECIPITATION =   0.000000    
                                RUNOFF =   0.000000                                    RUNOFF =   0.000000    
                CONSTANT CONCENTRATION =   0.000000                    CONSTANT CONCENTRATION =   0.000000    
                             MASS GAIN =   0.000000                                 MASS GAIN =   0.000000    
                                         -------------------                                    --------------
                              TOTAL IN =   671.3313                                  TOTAL IN =   9.324039    

                   STREAM ACCUMULATION =  0.8316385E-03                   STREAM ACCUMULATION =  0.1096373E-04
                        STREAM OUTFLOW =   671.3304                            STREAM OUTFLOW =   9.324030    
                          STREAM TO GW =   0.000000                              STREAM TO GW =   0.000000    
                CONSTANT CONCENTRATION =   0.000000                    CONSTANT CONCENTRATION =   0.000000    
                           EVAPORATION =   0.000000                               EVAPORATION =   0.000000    
                             MASS LOSS =   0.000000                                 MASS LOSS =   0.000000    
                                         -------------------                                    --------------
                             TOTAL OUT =   671.3313                                 TOTAL OUT =   9.324040    

                        NET (IN - OUT) =   0.000000                            NET (IN - OUT) = -0.1907349E-05
                 DISCREPANCY (PERCENT) =   0.000000                     DISCREPANCY (PERCENT) = -0.2045625E-04
                                              FLOW ERR (QIN-QOUT-DV) = -0.9536743E-06 [L3/T]




 >>>>>>>>>>>>>>>>>>>>>>>>>>>>>>>>>>>>>>>>>>>>>>>>>>>>>>>FOR COMPONENT NO. 01<<<<<<<<<<<<<<<<<<<<<<<<<<<<<<<<<<<<<<<<<<<<<<<<<<<<<<<


                                            -------------------------------------------
                                                      TRANSPORT STEP NO.   72
                                            -------------------------------------------

 TOTAL ELAPSED TIME SINCE BEGINNING OF SIMULATION =   12960.00    D   
 .....................................................................

                     CUMULATIVE MASS BUDGETS AT END OF TRANSPORT STEP   72, TIME STEP    1, STRESS PERIOD    1
                     -----------------------------------------------------------------------------------------

                                                             IN                           OUT
                                                      ----------------             ----------------
                               CONSTANT CONCENTRATION:    0.000000                    0.000000    
                                        CONSTANT HEAD:    161.7696                   -89.84085    
                                               STREAM:    0.000000                   -71.93079    
                               MASS STOR (FLOW MODEL):   0.2185404E-02              -0.2959040E-07
                                MASS STORAGE (SOLUTE):    0.000000                    0.000000    
                            ---------------------------------------------------------------------------
                                              [TOTAL]:    161.7718     KG            -161.7716     KG  

                                                          NET (IN - OUT):   0.1525879E-03
                                                   DISCREPANCY (PERCENT):   0.9432298E-04
     2 CALLS TO GCG PACKAGE FOR TRANSPORT TIME STEP    73 IN FLOW TIME STEP     1 STRESS PERIOD     1
      2 TOTAL ITERATIONS
  MAXIMUM CONCENTRATION CHANGES FOR EACH ITERATION:
  MAX. CHANGE LAYER,ROW,COL MAX. CHANGE LAYER,ROW,COL MAX. CHANGE LAYER,ROW,COL MAX. CHANGE LAYER,ROW,COL MAX. CHANGE LAYER,ROW,COL
 ------------------------------------------------------------------------------------------------------------------------------------
    0.000     (  1,  1,  1)   0.000     (  1,  1,  1)


                     STREAM MASS BUDGETS AT END OF TRANSPORT STEP   73, TIME STEP    1, STRESS PERIOD    1 FOR COMPONENT   1
                     -------------------------------------------------------------------------------------------------------

                                         CUMULATIVE MASS [M]                                     MASS FOR THIS TIME STEP [M]
                                         -------------------                                    --------------
                      STREAM DEPLETION =  0.3955734E-04                      STREAM DEPLETION =  0.3019817E-07
                      INFLOW TO STREAM =   607.7255                          INFLOW TO STREAM =   8.325000    
                          GW TO STREAM =   72.92983                              GW TO STREAM =  0.9990391    
                         PRECIPITATION =   0.000000                             PRECIPITATION =   0.000000    
                                RUNOFF =   0.000000                                    RUNOFF =   0.000000    
                CONSTANT CONCENTRATION =   0.000000                    CONSTANT CONCENTRATION =   0.000000    
                             MASS GAIN =   0.000000                                 MASS GAIN =   0.000000    
                                         -------------------                                    --------------
                              TOTAL IN =   680.6553                                  TOTAL IN =   9.324039    

                   STREAM ACCUMULATION =  0.8425541E-03                   STREAM ACCUMULATION =  0.1091562E-04
                        STREAM OUTFLOW =   680.6545                            STREAM OUTFLOW =   9.324030    
                          STREAM TO GW =   0.000000                              STREAM TO GW =   0.000000    
                CONSTANT CONCENTRATION =   0.000000                    CONSTANT CONCENTRATION =   0.000000    
                           EVAPORATION =   0.000000                               EVAPORATION =   0.000000    
                             MASS LOSS =   0.000000                                 MASS LOSS =   0.000000    
                                         -------------------                                    --------------
                             TOTAL OUT =   680.6553                                 TOTAL OUT =   9.324040    

                        NET (IN - OUT) =   0.000000                            NET (IN - OUT) = -0.1907349E-05
                 DISCREPANCY (PERCENT) =   0.000000                     DISCREPANCY (PERCENT) = -0.2045625E-04
                                              FLOW ERR (QIN-QOUT-DV) = -0.9536743E-06 [L3/T]




 >>>>>>>>>>>>>>>>>>>>>>>>>>>>>>>>>>>>>>>>>>>>>>>>>>>>>>>FOR COMPONENT NO. 01<<<<<<<<<<<<<<<<<<<<<<<<<<<<<<<<<<<<<<<<<<<<<<<<<<<<<<<


                                            -------------------------------------------
                                                      TRANSPORT STEP NO.   73
                                            -------------------------------------------

 TOTAL ELAPSED TIME SINCE BEGINNING OF SIMULATION =   13140.00    D   
 .....................................................................

                     CUMULATIVE MASS BUDGETS AT END OF TRANSPORT STEP   73, TIME STEP    1, STRESS PERIOD    1
                     -----------------------------------------------------------------------------------------

                                                             IN                           OUT
                                                      ----------------             ----------------
                               CONSTANT CONCENTRATION:    0.000000                    0.000000    
                                        CONSTANT HEAD:    164.0164                   -91.08864    
                                               STREAM:    0.000000                   -72.92983    
                               MASS STOR (FLOW MODEL):   0.2215757E-02              -0.3000138E-07
                                MASS STORAGE (SOLUTE):    0.000000                    0.000000    
                            ---------------------------------------------------------------------------
                                              [TOTAL]:    164.0186     KG            -164.0185     KG  

                                                          NET (IN - OUT):   0.1525879E-03
                                                   DISCREPANCY (PERCENT):   0.9303088E-04
     2 CALLS TO GCG PACKAGE FOR TRANSPORT TIME STEP    74 IN FLOW TIME STEP     1 STRESS PERIOD     1
      2 TOTAL ITERATIONS
  MAXIMUM CONCENTRATION CHANGES FOR EACH ITERATION:
  MAX. CHANGE LAYER,ROW,COL MAX. CHANGE LAYER,ROW,COL MAX. CHANGE LAYER,ROW,COL MAX. CHANGE LAYER,ROW,COL MAX. CHANGE LAYER,ROW,COL
 ------------------------------------------------------------------------------------------------------------------------------------
    0.000     (  1,  1,  1)   0.000     (  1,  1,  1)


                     STREAM MASS BUDGETS AT END OF TRANSPORT STEP   74, TIME STEP    1, STRESS PERIOD    1 FOR COMPONENT   1
                     -------------------------------------------------------------------------------------------------------

                                         CUMULATIVE MASS [M]                                     MASS FOR THIS TIME STEP [M]
                                         -------------------                                    --------------
                      STREAM DEPLETION =  0.3958781E-04                      STREAM DEPLETION =  0.3047360E-07
                      INFLOW TO STREAM =   616.0505                          INFLOW TO STREAM =   8.325000    
                          GW TO STREAM =   73.92887                              GW TO STREAM =  0.9990391    
                         PRECIPITATION =   0.000000                             PRECIPITATION =   0.000000    
                                RUNOFF =   0.000000                                    RUNOFF =   0.000000    
                CONSTANT CONCENTRATION =   0.000000                    CONSTANT CONCENTRATION =   0.000000    
                             MASS GAIN =   0.000000                                 MASS GAIN =   0.000000    
                                         -------------------                                    --------------
                              TOTAL IN =   689.9794                                  TOTAL IN =   9.324039    

                   STREAM ACCUMULATION =  0.8534149E-03                   STREAM ACCUMULATION =  0.1086073E-04
                        STREAM OUTFLOW =   689.9785                            STREAM OUTFLOW =   9.324030    
                          STREAM TO GW =   0.000000                              STREAM TO GW =   0.000000    
                CONSTANT CONCENTRATION =   0.000000                    CONSTANT CONCENTRATION =   0.000000    
                           EVAPORATION =   0.000000                               EVAPORATION =   0.000000    
                             MASS LOSS =   0.000000                                 MASS LOSS =   0.000000    
                                         -------------------                                    --------------
                             TOTAL OUT =   689.9794                                 TOTAL OUT =   9.324040    

                        NET (IN - OUT) =   0.000000                            NET (IN - OUT) = -0.1907349E-05
                 DISCREPANCY (PERCENT) =   0.000000                     DISCREPANCY (PERCENT) = -0.2045625E-04
                                              FLOW ERR (QIN-QOUT-DV) = -0.9536743E-06 [L3/T]




 >>>>>>>>>>>>>>>>>>>>>>>>>>>>>>>>>>>>>>>>>>>>>>>>>>>>>>>FOR COMPONENT NO. 01<<<<<<<<<<<<<<<<<<<<<<<<<<<<<<<<<<<<<<<<<<<<<<<<<<<<<<<


                                            -------------------------------------------
                                                      TRANSPORT STEP NO.   74
                                            -------------------------------------------

 TOTAL ELAPSED TIME SINCE BEGINNING OF SIMULATION =   13320.00    D   
 .....................................................................

                     CUMULATIVE MASS BUDGETS AT END OF TRANSPORT STEP   74, TIME STEP    1, STRESS PERIOD    1
                     -----------------------------------------------------------------------------------------

                                                             IN                           OUT
                                                      ----------------             ----------------
                               CONSTANT CONCENTRATION:    0.000000                    0.000000    
                                        CONSTANT HEAD:    166.2632                   -92.33643    
                                               STREAM:    0.000000                   -73.92887    
                               MASS STOR (FLOW MODEL):   0.2246110E-02              -0.3041236E-07
                                MASS STORAGE (SOLUTE):    0.000000                    0.000000    
                            ---------------------------------------------------------------------------
                                              [TOTAL]:    166.2654     KG            -166.2653     KG  

                                                          NET (IN - OUT):   0.1525879E-03
                                                   DISCREPANCY (PERCENT):   0.9177371E-04
     2 CALLS TO GCG PACKAGE FOR TRANSPORT TIME STEP    75 IN FLOW TIME STEP     1 STRESS PERIOD     1
      2 TOTAL ITERATIONS
  MAXIMUM CONCENTRATION CHANGES FOR EACH ITERATION:
  MAX. CHANGE LAYER,ROW,COL MAX. CHANGE LAYER,ROW,COL MAX. CHANGE LAYER,ROW,COL MAX. CHANGE LAYER,ROW,COL MAX. CHANGE LAYER,ROW,COL
 ------------------------------------------------------------------------------------------------------------------------------------
    0.000     (  1,  1,  1)   0.000     (  1,  1,  1)


                     STREAM MASS BUDGETS AT END OF TRANSPORT STEP   75, TIME STEP    1, STRESS PERIOD    1 FOR COMPONENT   1
                     -------------------------------------------------------------------------------------------------------

                                         CUMULATIVE MASS [M]                                     MASS FOR THIS TIME STEP [M]
                                         -------------------                                    --------------
                      STREAM DEPLETION =  0.3961825E-04                      STREAM DEPLETION =  0.3044122E-07
                      INFLOW TO STREAM =   624.3755                          INFLOW TO STREAM =   8.325000    
                          GW TO STREAM =   74.92791                              GW TO STREAM =  0.9990391    
                         PRECIPITATION =   0.000000                             PRECIPITATION =   0.000000    
                                RUNOFF =   0.000000                                    RUNOFF =   0.000000    
                CONSTANT CONCENTRATION =   0.000000                    CONSTANT CONCENTRATION =   0.000000    
                             MASS GAIN =   0.000000                                 MASS GAIN =   0.000000    
                                         -------------------                                    --------------
                              TOTAL IN =   699.3035                                  TOTAL IN =   9.324039    

                   STREAM ACCUMULATION =  0.8642134E-03                   STREAM ACCUMULATION =  0.1079856E-04
                        STREAM OUTFLOW =   699.3026                            STREAM OUTFLOW =   9.324030    
                          STREAM TO GW =   0.000000                              STREAM TO GW =   0.000000    
                CONSTANT CONCENTRATION =   0.000000                    CONSTANT CONCENTRATION =   0.000000    
                           EVAPORATION =   0.000000                               EVAPORATION =   0.000000    
                             MASS LOSS =   0.000000                                 MASS LOSS =   0.000000    
                                         -------------------                                    --------------
                             TOTAL OUT =   699.3034                                 TOTAL OUT =   9.324040    

                        NET (IN - OUT) =  0.6103516E-04                        NET (IN - OUT) = -0.1907349E-05
                 DISCREPANCY (PERCENT) =  0.8727993E-05                 DISCREPANCY (PERCENT) = -0.2045625E-04
                                              FLOW ERR (QIN-QOUT-DV) = -0.9536743E-06 [L3/T]




 >>>>>>>>>>>>>>>>>>>>>>>>>>>>>>>>>>>>>>>>>>>>>>>>>>>>>>>FOR COMPONENT NO. 01<<<<<<<<<<<<<<<<<<<<<<<<<<<<<<<<<<<<<<<<<<<<<<<<<<<<<<<


                                            -------------------------------------------
                                                      TRANSPORT STEP NO.   75
                                            -------------------------------------------

 TOTAL ELAPSED TIME SINCE BEGINNING OF SIMULATION =   13500.00    D   
 .....................................................................

                     CUMULATIVE MASS BUDGETS AT END OF TRANSPORT STEP   75, TIME STEP    1, STRESS PERIOD    1
                     -----------------------------------------------------------------------------------------

                                                             IN                           OUT
                                                      ----------------             ----------------
                               CONSTANT CONCENTRATION:    0.000000                    0.000000    
                                        CONSTANT HEAD:    168.5100                   -93.58421    
                                               STREAM:    0.000000                   -74.92791    
                               MASS STOR (FLOW MODEL):   0.2276462E-02              -0.3082333E-07
                                MASS STORAGE (SOLUTE):    0.000000                    0.000000    
                            ---------------------------------------------------------------------------
                                              [TOTAL]:    168.5123     KG            -168.5121     KG  

                                                          NET (IN - OUT):   0.1525879E-03
                                                   DISCREPANCY (PERCENT):   0.9055006E-04
     2 CALLS TO GCG PACKAGE FOR TRANSPORT TIME STEP    76 IN FLOW TIME STEP     1 STRESS PERIOD     1
      2 TOTAL ITERATIONS
  MAXIMUM CONCENTRATION CHANGES FOR EACH ITERATION:
  MAX. CHANGE LAYER,ROW,COL MAX. CHANGE LAYER,ROW,COL MAX. CHANGE LAYER,ROW,COL MAX. CHANGE LAYER,ROW,COL MAX. CHANGE LAYER,ROW,COL
 ------------------------------------------------------------------------------------------------------------------------------------
    0.000     (  1,  1,  1)   0.000     (  1,  1,  1)


                     STREAM MASS BUDGETS AT END OF TRANSPORT STEP   76, TIME STEP    1, STRESS PERIOD    1 FOR COMPONENT   1
                     -------------------------------------------------------------------------------------------------------

                                         CUMULATIVE MASS [M]                                     MASS FOR THIS TIME STEP [M]
                                         -------------------                                    --------------
                      STREAM DEPLETION =  0.3964881E-04                      STREAM DEPLETION =  0.3055505E-07
                      INFLOW TO STREAM =   632.7005                          INFLOW TO STREAM =   8.325000    
                          GW TO STREAM =   75.92695                              GW TO STREAM =  0.9990391    
                         PRECIPITATION =   0.000000                             PRECIPITATION =   0.000000    
                                RUNOFF =   0.000000                                    RUNOFF =   0.000000    
                CONSTANT CONCENTRATION =   0.000000                    CONSTANT CONCENTRATION =   0.000000    
                             MASS GAIN =   0.000000                                 MASS GAIN =   0.000000    
                                         -------------------                                    --------------
                              TOTAL IN =   708.6275                                  TOTAL IN =   9.324039    

                   STREAM ACCUMULATION =  0.8749426E-03                   STREAM ACCUMULATION =  0.1072911E-04
                        STREAM OUTFLOW =   708.6266                            STREAM OUTFLOW =   9.324030    
                          STREAM TO GW =   0.000000                              STREAM TO GW =   0.000000    
                CONSTANT CONCENTRATION =   0.000000                    CONSTANT CONCENTRATION =   0.000000    
                           EVAPORATION =   0.000000                               EVAPORATION =   0.000000    
                             MASS LOSS =   0.000000                                 MASS LOSS =   0.000000    
                                         -------------------                                    --------------
                             TOTAL OUT =   708.6274                                 TOTAL OUT =   9.324040    

                        NET (IN - OUT) =  0.6103516E-04                        NET (IN - OUT) = -0.1907349E-05
                 DISCREPANCY (PERCENT) =  0.8613151E-05                 DISCREPANCY (PERCENT) = -0.2045625E-04
                                              FLOW ERR (QIN-QOUT-DV) = -0.9536743E-06 [L3/T]




 >>>>>>>>>>>>>>>>>>>>>>>>>>>>>>>>>>>>>>>>>>>>>>>>>>>>>>>FOR COMPONENT NO. 01<<<<<<<<<<<<<<<<<<<<<<<<<<<<<<<<<<<<<<<<<<<<<<<<<<<<<<<


                                            -------------------------------------------
                                                      TRANSPORT STEP NO.   76
                                            -------------------------------------------

 TOTAL ELAPSED TIME SINCE BEGINNING OF SIMULATION =   13680.00    D   
 .....................................................................

                     CUMULATIVE MASS BUDGETS AT END OF TRANSPORT STEP   76, TIME STEP    1, STRESS PERIOD    1
                     -----------------------------------------------------------------------------------------

                                                             IN                           OUT
                                                      ----------------             ----------------
                               CONSTANT CONCENTRATION:    0.000000                    0.000000    
                                        CONSTANT HEAD:    170.7568                   -94.83200    
                                               STREAM:    0.000000                   -75.92695    
                               MASS STOR (FLOW MODEL):   0.2306815E-02              -0.3123431E-07
                                MASS STORAGE (SOLUTE):    0.000000                    0.000000    
                            ---------------------------------------------------------------------------
                                              [TOTAL]:    170.7591     KG            -170.7589     KG  

                                                          NET (IN - OUT):   0.1525879E-03
                                                   DISCREPANCY (PERCENT):   0.8935861E-04
     2 CALLS TO GCG PACKAGE FOR TRANSPORT TIME STEP    77 IN FLOW TIME STEP     1 STRESS PERIOD     1
      2 TOTAL ITERATIONS
  MAXIMUM CONCENTRATION CHANGES FOR EACH ITERATION:
  MAX. CHANGE LAYER,ROW,COL MAX. CHANGE LAYER,ROW,COL MAX. CHANGE LAYER,ROW,COL MAX. CHANGE LAYER,ROW,COL MAX. CHANGE LAYER,ROW,COL
 ------------------------------------------------------------------------------------------------------------------------------------
    0.000     (  1,  1,  1)   0.000     (  1,  1,  1)


                     STREAM MASS BUDGETS AT END OF TRANSPORT STEP   77, TIME STEP    1, STRESS PERIOD    1 FOR COMPONENT   1
                     -------------------------------------------------------------------------------------------------------

                                         CUMULATIVE MASS [M]                                     MASS FOR THIS TIME STEP [M]
                                         -------------------                                    --------------
                      STREAM DEPLETION =  0.3967925E-04                      STREAM DEPLETION =  0.3043770E-07
                      INFLOW TO STREAM =   641.0255                          INFLOW TO STREAM =   8.325000    
                          GW TO STREAM =   76.92599                              GW TO STREAM =  0.9990391    
                         PRECIPITATION =   0.000000                             PRECIPITATION =   0.000000    
                                RUNOFF =   0.000000                                    RUNOFF =   0.000000    
                CONSTANT CONCENTRATION =   0.000000                    CONSTANT CONCENTRATION =   0.000000    
                             MASS GAIN =   0.000000                                 MASS GAIN =   0.000000    
                                         -------------------                                    --------------
                              TOTAL IN =   717.9515                                  TOTAL IN =   9.324039    

                   STREAM ACCUMULATION =  0.8855945E-03                   STREAM ACCUMULATION =  0.1065186E-04
                        STREAM OUTFLOW =   717.9506                            STREAM OUTFLOW =   9.324030    
                          STREAM TO GW =   0.000000                              STREAM TO GW =   0.000000    
                CONSTANT CONCENTRATION =   0.000000                    CONSTANT CONCENTRATION =   0.000000    
                           EVAPORATION =   0.000000                               EVAPORATION =   0.000000    
                             MASS LOSS =   0.000000                                 MASS LOSS =   0.000000    
                                         -------------------                                    --------------
                             TOTAL OUT =   717.9515                                 TOTAL OUT =   9.324040    

                        NET (IN - OUT) =   0.000000                            NET (IN - OUT) = -0.1907349E-05
                 DISCREPANCY (PERCENT) =   0.000000                     DISCREPANCY (PERCENT) = -0.2045625E-04
                                              FLOW ERR (QIN-QOUT-DV) = -0.9536743E-06 [L3/T]




 >>>>>>>>>>>>>>>>>>>>>>>>>>>>>>>>>>>>>>>>>>>>>>>>>>>>>>>FOR COMPONENT NO. 01<<<<<<<<<<<<<<<<<<<<<<<<<<<<<<<<<<<<<<<<<<<<<<<<<<<<<<<


                                            -------------------------------------------
                                                      TRANSPORT STEP NO.   77
                                            -------------------------------------------

 TOTAL ELAPSED TIME SINCE BEGINNING OF SIMULATION =   13860.00    D   
 .....................................................................

                     CUMULATIVE MASS BUDGETS AT END OF TRANSPORT STEP   77, TIME STEP    1, STRESS PERIOD    1
                     -----------------------------------------------------------------------------------------

                                                             IN                           OUT
                                                      ----------------             ----------------
                               CONSTANT CONCENTRATION:    0.000000                    0.000000    
                                        CONSTANT HEAD:    173.0036                   -96.07979    
                                               STREAM:    0.000000                   -76.92599    
                               MASS STOR (FLOW MODEL):   0.2337168E-02              -0.3164529E-07
                                MASS STORAGE (SOLUTE):    0.000000                    0.000000    
                            ---------------------------------------------------------------------------
                                              [TOTAL]:    173.0059     KG            -173.0058     KG  

                                                          NET (IN - OUT):   0.1525879E-03
                                                   DISCREPANCY (PERCENT):   0.8819811E-04
     2 CALLS TO GCG PACKAGE FOR TRANSPORT TIME STEP    78 IN FLOW TIME STEP     1 STRESS PERIOD     1
      2 TOTAL ITERATIONS
  MAXIMUM CONCENTRATION CHANGES FOR EACH ITERATION:
  MAX. CHANGE LAYER,ROW,COL MAX. CHANGE LAYER,ROW,COL MAX. CHANGE LAYER,ROW,COL MAX. CHANGE LAYER,ROW,COL MAX. CHANGE LAYER,ROW,COL
 ------------------------------------------------------------------------------------------------------------------------------------
    0.000     (  1,  1,  1)   0.000     (  1,  1,  1)


                     STREAM MASS BUDGETS AT END OF TRANSPORT STEP   78, TIME STEP    1, STRESS PERIOD    1 FOR COMPONENT   1
                     -------------------------------------------------------------------------------------------------------

                                         CUMULATIVE MASS [M]                                     MASS FOR THIS TIME STEP [M]
                                         -------------------                                    --------------
                      STREAM DEPLETION =  0.3970955E-04                      STREAM DEPLETION =  0.3030179E-07
                      INFLOW TO STREAM =   649.3505                          INFLOW TO STREAM =   8.325000    
                          GW TO STREAM =   77.92503                              GW TO STREAM =  0.9990391    
                         PRECIPITATION =   0.000000                             PRECIPITATION =   0.000000    
                                RUNOFF =   0.000000                                    RUNOFF =   0.000000    
                CONSTANT CONCENTRATION =   0.000000                    CONSTANT CONCENTRATION =   0.000000    
                             MASS GAIN =   0.000000                                 MASS GAIN =   0.000000    
                                         -------------------                                    --------------
                              TOTAL IN =   727.2756                                  TOTAL IN =   9.324039    

                   STREAM ACCUMULATION =  0.8961611E-03                   STREAM ACCUMULATION =  0.1056664E-04
                        STREAM OUTFLOW =   727.2747                            STREAM OUTFLOW =   9.324030    
                          STREAM TO GW =   0.000000                              STREAM TO GW =   0.000000    
                CONSTANT CONCENTRATION =   0.000000                    CONSTANT CONCENTRATION =   0.000000    
                           EVAPORATION =   0.000000                               EVAPORATION =   0.000000    
                             MASS LOSS =   0.000000                                 MASS LOSS =   0.000000    
                                         -------------------                                    --------------
                             TOTAL OUT =   727.2756                                 TOTAL OUT =   9.324040    

                        NET (IN - OUT) =   0.000000                            NET (IN - OUT) = -0.1907349E-05
                 DISCREPANCY (PERCENT) =   0.000000                     DISCREPANCY (PERCENT) = -0.2045625E-04
                                              FLOW ERR (QIN-QOUT-DV) = -0.9536743E-06 [L3/T]




 >>>>>>>>>>>>>>>>>>>>>>>>>>>>>>>>>>>>>>>>>>>>>>>>>>>>>>>FOR COMPONENT NO. 01<<<<<<<<<<<<<<<<<<<<<<<<<<<<<<<<<<<<<<<<<<<<<<<<<<<<<<<


                                            -------------------------------------------
                                                      TRANSPORT STEP NO.   78
                                            -------------------------------------------

 TOTAL ELAPSED TIME SINCE BEGINNING OF SIMULATION =   14040.00    D   
 .....................................................................

                     CUMULATIVE MASS BUDGETS AT END OF TRANSPORT STEP   78, TIME STEP    1, STRESS PERIOD    1
                     -----------------------------------------------------------------------------------------

                                                             IN                           OUT
                                                      ----------------             ----------------
                               CONSTANT CONCENTRATION:    0.000000                    0.000000    
                                        CONSTANT HEAD:    175.2504                   -97.32758    
                                               STREAM:    0.000000                   -77.92503    
                               MASS STOR (FLOW MODEL):   0.2367520E-02              -0.3205627E-07
                                MASS STORAGE (SOLUTE):    0.000000                    0.000000    
                            ---------------------------------------------------------------------------
                                              [TOTAL]:    175.2527     KG            -175.2526     KG  

                                                          NET (IN - OUT):   0.1525879E-03
                                                   DISCREPANCY (PERCENT):   0.8706737E-04
     2 CALLS TO GCG PACKAGE FOR TRANSPORT TIME STEP    79 IN FLOW TIME STEP     1 STRESS PERIOD     1
      2 TOTAL ITERATIONS
  MAXIMUM CONCENTRATION CHANGES FOR EACH ITERATION:
  MAX. CHANGE LAYER,ROW,COL MAX. CHANGE LAYER,ROW,COL MAX. CHANGE LAYER,ROW,COL MAX. CHANGE LAYER,ROW,COL MAX. CHANGE LAYER,ROW,COL
 ------------------------------------------------------------------------------------------------------------------------------------
    0.000     (  1,  1,  1)   0.000     (  1,  1,  1)


                     STREAM MASS BUDGETS AT END OF TRANSPORT STEP   79, TIME STEP    1, STRESS PERIOD    1 FOR COMPONENT   1
                     -------------------------------------------------------------------------------------------------------

                                         CUMULATIVE MASS [M]                                     MASS FOR THIS TIME STEP [M]
                                         -------------------                                    --------------
                      STREAM DEPLETION =  0.3973989E-04                      STREAM DEPLETION =  0.3033826E-07
                      INFLOW TO STREAM =   657.6755                          INFLOW TO STREAM =   8.325000    
                          GW TO STREAM =   78.92406                              GW TO STREAM =  0.9990391    
                         PRECIPITATION =   0.000000                             PRECIPITATION =   0.000000    
                                RUNOFF =   0.000000                                    RUNOFF =   0.000000    
                CONSTANT CONCENTRATION =   0.000000                    CONSTANT CONCENTRATION =   0.000000    
                             MASS GAIN =   0.000000                                 MASS GAIN =   0.000000    
                                         -------------------                                    --------------
                              TOTAL IN =   736.5996                                  TOTAL IN =   9.324039    

                   STREAM ACCUMULATION =  0.9066347E-03                   STREAM ACCUMULATION =  0.1047358E-04
                        STREAM OUTFLOW =   736.5987                            STREAM OUTFLOW =   9.324031    
                          STREAM TO GW =   0.000000                              STREAM TO GW =   0.000000    
                CONSTANT CONCENTRATION =   0.000000                    CONSTANT CONCENTRATION =   0.000000    
                           EVAPORATION =   0.000000                               EVAPORATION =   0.000000    
                             MASS LOSS =   0.000000                                 MASS LOSS =   0.000000    
                                         -------------------                                    --------------
                             TOTAL OUT =   736.5996                                 TOTAL OUT =   9.324041    

                        NET (IN - OUT) =   0.000000                            NET (IN - OUT) = -0.2861023E-05
                 DISCREPANCY (PERCENT) =   0.000000                     DISCREPANCY (PERCENT) = -0.3068437E-04
                                              FLOW ERR (QIN-QOUT-DV) = -0.9536743E-06 [L3/T]




 >>>>>>>>>>>>>>>>>>>>>>>>>>>>>>>>>>>>>>>>>>>>>>>>>>>>>>>FOR COMPONENT NO. 01<<<<<<<<<<<<<<<<<<<<<<<<<<<<<<<<<<<<<<<<<<<<<<<<<<<<<<<


                                            -------------------------------------------
                                                      TRANSPORT STEP NO.   79
                                            -------------------------------------------

 TOTAL ELAPSED TIME SINCE BEGINNING OF SIMULATION =   14220.00    D   
 .....................................................................

                     CUMULATIVE MASS BUDGETS AT END OF TRANSPORT STEP   79, TIME STEP    1, STRESS PERIOD    1
                     -----------------------------------------------------------------------------------------

                                                             IN                           OUT
                                                      ----------------             ----------------
                               CONSTANT CONCENTRATION:    0.000000                    0.000000    
                                        CONSTANT HEAD:    177.4972                   -98.57536    
                                               STREAM:    0.000000                   -78.92406    
                               MASS STOR (FLOW MODEL):   0.2397873E-02              -0.3246724E-07
                                MASS STORAGE (SOLUTE):    0.000000                    0.000000    
                            ---------------------------------------------------------------------------
                                              [TOTAL]:    177.4996     KG            -177.4994     KG  

                                                          NET (IN - OUT):   0.1525879E-03
                                                   DISCREPANCY (PERCENT):   0.8596525E-04
     2 CALLS TO GCG PACKAGE FOR TRANSPORT TIME STEP    80 IN FLOW TIME STEP     1 STRESS PERIOD     1
      2 TOTAL ITERATIONS
  MAXIMUM CONCENTRATION CHANGES FOR EACH ITERATION:
  MAX. CHANGE LAYER,ROW,COL MAX. CHANGE LAYER,ROW,COL MAX. CHANGE LAYER,ROW,COL MAX. CHANGE LAYER,ROW,COL MAX. CHANGE LAYER,ROW,COL
 ------------------------------------------------------------------------------------------------------------------------------------
    0.000     (  1,  1,  1)   0.000     (  1,  1,  1)


                     STREAM MASS BUDGETS AT END OF TRANSPORT STEP   80, TIME STEP    1, STRESS PERIOD    1 FOR COMPONENT   1
                     -------------------------------------------------------------------------------------------------------

                                         CUMULATIVE MASS [M]                                     MASS FOR THIS TIME STEP [M]
                                         -------------------                                    --------------
                      STREAM DEPLETION =  0.3977002E-04                      STREAM DEPLETION =  0.3013558E-07
                      INFLOW TO STREAM =   666.0005                          INFLOW TO STREAM =   8.325000    
                          GW TO STREAM =   79.92310                              GW TO STREAM =  0.9990391    
                         PRECIPITATION =   0.000000                             PRECIPITATION =   0.000000    
                                RUNOFF =   0.000000                                    RUNOFF =   0.000000    
                CONSTANT CONCENTRATION =   0.000000                    CONSTANT CONCENTRATION =   0.000000    
                             MASS GAIN =   0.000000                                 MASS GAIN =   0.000000    
                                         -------------------                                    --------------
                              TOTAL IN =   745.9237                                  TOTAL IN =   9.324039    

                   STREAM ACCUMULATION =  0.9170067E-03                   STREAM ACCUMULATION =  0.1037201E-04
                        STREAM OUTFLOW =   745.9227                            STREAM OUTFLOW =   9.324031    
                          STREAM TO GW =   0.000000                              STREAM TO GW =   0.000000    
                CONSTANT CONCENTRATION =   0.000000                    CONSTANT CONCENTRATION =   0.000000    
                           EVAPORATION =   0.000000                               EVAPORATION =   0.000000    
                             MASS LOSS =   0.000000                                 MASS LOSS =   0.000000    
                                         -------------------                                    --------------
                             TOTAL OUT =   745.9236                                 TOTAL OUT =   9.324041    

                        NET (IN - OUT) =  0.6103516E-04                        NET (IN - OUT) = -0.2861023E-05
                 DISCREPANCY (PERCENT) =  0.8182493E-05                 DISCREPANCY (PERCENT) = -0.3068437E-04
                                              FLOW ERR (QIN-QOUT-DV) = -0.9536743E-06 [L3/T]




 >>>>>>>>>>>>>>>>>>>>>>>>>>>>>>>>>>>>>>>>>>>>>>>>>>>>>>>FOR COMPONENT NO. 01<<<<<<<<<<<<<<<<<<<<<<<<<<<<<<<<<<<<<<<<<<<<<<<<<<<<<<<


                                            -------------------------------------------
                                                      TRANSPORT STEP NO.   80
                                            -------------------------------------------

 TOTAL ELAPSED TIME SINCE BEGINNING OF SIMULATION =   14400.00    D   
 .....................................................................

                     CUMULATIVE MASS BUDGETS AT END OF TRANSPORT STEP   80, TIME STEP    1, STRESS PERIOD    1
                     -----------------------------------------------------------------------------------------

                                                             IN                           OUT
                                                      ----------------             ----------------
                               CONSTANT CONCENTRATION:    0.000000                    0.000000    
                                        CONSTANT HEAD:    179.7440                   -99.82315    
                                               STREAM:    0.000000                   -79.92310    
                               MASS STOR (FLOW MODEL):   0.2428226E-02              -0.3287822E-07
                                MASS STORAGE (SOLUTE):    0.000000                    0.000000    
                            ---------------------------------------------------------------------------
                                              [TOTAL]:    179.7464     KG            -179.7462     KG  

                                                          NET (IN - OUT):   0.1525879E-03
                                                   DISCREPANCY (PERCENT):   0.8489069E-04
     2 CALLS TO GCG PACKAGE FOR TRANSPORT TIME STEP    81 IN FLOW TIME STEP     1 STRESS PERIOD     1
      2 TOTAL ITERATIONS
  MAXIMUM CONCENTRATION CHANGES FOR EACH ITERATION:
  MAX. CHANGE LAYER,ROW,COL MAX. CHANGE LAYER,ROW,COL MAX. CHANGE LAYER,ROW,COL MAX. CHANGE LAYER,ROW,COL MAX. CHANGE LAYER,ROW,COL
 ------------------------------------------------------------------------------------------------------------------------------------
    0.000     (  1,  1,  1)   0.000     (  1,  1,  1)


                     STREAM MASS BUDGETS AT END OF TRANSPORT STEP   81, TIME STEP    1, STRESS PERIOD    1 FOR COMPONENT   1
                     -------------------------------------------------------------------------------------------------------

                                         CUMULATIVE MASS [M]                                     MASS FOR THIS TIME STEP [M]
                                         -------------------                                    --------------
                      STREAM DEPLETION =  0.3980034E-04                      STREAM DEPLETION =  0.3031274E-07
                      INFLOW TO STREAM =   674.3256                          INFLOW TO STREAM =   8.325000    
                          GW TO STREAM =   80.92214                              GW TO STREAM =  0.9990391    
                         PRECIPITATION =   0.000000                             PRECIPITATION =   0.000000    
                                RUNOFF =   0.000000                                    RUNOFF =   0.000000    
                CONSTANT CONCENTRATION =   0.000000                    CONSTANT CONCENTRATION =   0.000000    
                             MASS GAIN =   0.000000                                 MASS GAIN =   0.000000    
                                         -------------------                                    --------------
                              TOTAL IN =   755.2477                                  TOTAL IN =   9.324039    

                   STREAM ACCUMULATION =  0.9272692E-03                   STREAM ACCUMULATION =  0.1026255E-04
                        STREAM OUTFLOW =   755.2468                            STREAM OUTFLOW =   9.324031    
                          STREAM TO GW =   0.000000                              STREAM TO GW =   0.000000    
                CONSTANT CONCENTRATION =   0.000000                    CONSTANT CONCENTRATION =   0.000000    
                           EVAPORATION =   0.000000                               EVAPORATION =   0.000000    
                             MASS LOSS =   0.000000                                 MASS LOSS =   0.000000    
                                         -------------------                                    --------------
                             TOTAL OUT =   755.2477                                 TOTAL OUT =   9.324041    

                        NET (IN - OUT) =  0.6103516E-04                        NET (IN - OUT) = -0.2861023E-05
                 DISCREPANCY (PERCENT) =  0.8081475E-05                 DISCREPANCY (PERCENT) = -0.3068437E-04
                                              FLOW ERR (QIN-QOUT-DV) = -0.9536743E-06 [L3/T]




 >>>>>>>>>>>>>>>>>>>>>>>>>>>>>>>>>>>>>>>>>>>>>>>>>>>>>>>FOR COMPONENT NO. 01<<<<<<<<<<<<<<<<<<<<<<<<<<<<<<<<<<<<<<<<<<<<<<<<<<<<<<<


                                            -------------------------------------------
                                                      TRANSPORT STEP NO.   81
                                            -------------------------------------------

 TOTAL ELAPSED TIME SINCE BEGINNING OF SIMULATION =   14580.00    D   
 .....................................................................

                     CUMULATIVE MASS BUDGETS AT END OF TRANSPORT STEP   81, TIME STEP    1, STRESS PERIOD    1
                     -----------------------------------------------------------------------------------------

                                                             IN                           OUT
                                                      ----------------             ----------------
                               CONSTANT CONCENTRATION:    0.000000                    0.000000    
                                        CONSTANT HEAD:    181.9908                   -101.0709    
                                               STREAM:    0.000000                   -80.92214    
                               MASS STOR (FLOW MODEL):   0.2458579E-02              -0.3328920E-07
                                MASS STORAGE (SOLUTE):    0.000000                    0.000000    
                            ---------------------------------------------------------------------------
                                              [TOTAL]:    181.9932     KG            -181.9931     KG  

                                                          NET (IN - OUT):   0.1525879E-03
                                                   DISCREPANCY (PERCENT):   0.8384266E-04
     2 CALLS TO GCG PACKAGE FOR TRANSPORT TIME STEP    82 IN FLOW TIME STEP     1 STRESS PERIOD     1
      2 TOTAL ITERATIONS
  MAXIMUM CONCENTRATION CHANGES FOR EACH ITERATION:
  MAX. CHANGE LAYER,ROW,COL MAX. CHANGE LAYER,ROW,COL MAX. CHANGE LAYER,ROW,COL MAX. CHANGE LAYER,ROW,COL MAX. CHANGE LAYER,ROW,COL
 ------------------------------------------------------------------------------------------------------------------------------------
    0.000     (  1,  1,  1)   0.000     (  1,  1,  1)


                     STREAM MASS BUDGETS AT END OF TRANSPORT STEP   82, TIME STEP    1, STRESS PERIOD    1 FOR COMPONENT   1
                     -------------------------------------------------------------------------------------------------------

                                         CUMULATIVE MASS [M]                                     MASS FOR THIS TIME STEP [M]
                                         -------------------                                    --------------
                      STREAM DEPLETION =  0.3983045E-04                      STREAM DEPLETION =  0.3011910E-07
                      INFLOW TO STREAM =   682.6506                          INFLOW TO STREAM =   8.325000    
                          GW TO STREAM =   81.92118                              GW TO STREAM =  0.9990391    
                         PRECIPITATION =   0.000000                             PRECIPITATION =   0.000000    
                                RUNOFF =   0.000000                                    RUNOFF =   0.000000    
                CONSTANT CONCENTRATION =   0.000000                    CONSTANT CONCENTRATION =   0.000000    
                             MASS GAIN =   0.000000                                 MASS GAIN =   0.000000    
                                         -------------------                                    --------------
                              TOTAL IN =   764.5718                                  TOTAL IN =   9.324039    

                   STREAM ACCUMULATION =  0.9374135E-03                   STREAM ACCUMULATION =  0.1014429E-04
                        STREAM OUTFLOW =   764.5708                            STREAM OUTFLOW =   9.324031    
                          STREAM TO GW =   0.000000                              STREAM TO GW =   0.000000    
                CONSTANT CONCENTRATION =   0.000000                    CONSTANT CONCENTRATION =   0.000000    
                           EVAPORATION =   0.000000                               EVAPORATION =   0.000000    
                             MASS LOSS =   0.000000                                 MASS LOSS =   0.000000    
                                         -------------------                                    --------------
                             TOTAL OUT =   764.5717                                 TOTAL OUT =   9.324041    

                        NET (IN - OUT) =  0.6103516E-04                        NET (IN - OUT) = -0.2861023E-05
                 DISCREPANCY (PERCENT) =  0.7982921E-05                 DISCREPANCY (PERCENT) = -0.3068437E-04
                                              FLOW ERR (QIN-QOUT-DV) = -0.9536743E-06 [L3/T]




 >>>>>>>>>>>>>>>>>>>>>>>>>>>>>>>>>>>>>>>>>>>>>>>>>>>>>>>FOR COMPONENT NO. 01<<<<<<<<<<<<<<<<<<<<<<<<<<<<<<<<<<<<<<<<<<<<<<<<<<<<<<<


                                            -------------------------------------------
                                                      TRANSPORT STEP NO.   82
                                            -------------------------------------------

 TOTAL ELAPSED TIME SINCE BEGINNING OF SIMULATION =   14760.00    D   
 .....................................................................

                     CUMULATIVE MASS BUDGETS AT END OF TRANSPORT STEP   82, TIME STEP    1, STRESS PERIOD    1
                     -----------------------------------------------------------------------------------------

                                                             IN                           OUT
                                                      ----------------             ----------------
                               CONSTANT CONCENTRATION:    0.000000                    0.000000    
                                        CONSTANT HEAD:    184.2376                   -102.3187    
                                               STREAM:    0.000000                   -81.92118    
                               MASS STOR (FLOW MODEL):   0.2488931E-02              -0.3370018E-07
                                MASS STORAGE (SOLUTE):    0.000000                    0.000000    
                            ---------------------------------------------------------------------------
                                              [TOTAL]:    184.2401     KG            -184.2399     KG  

                                                          NET (IN - OUT):   0.1525879E-03
                                                   DISCREPANCY (PERCENT):   0.8282019E-04
     2 CALLS TO GCG PACKAGE FOR TRANSPORT TIME STEP    83 IN FLOW TIME STEP     1 STRESS PERIOD     1
      2 TOTAL ITERATIONS
  MAXIMUM CONCENTRATION CHANGES FOR EACH ITERATION:
  MAX. CHANGE LAYER,ROW,COL MAX. CHANGE LAYER,ROW,COL MAX. CHANGE LAYER,ROW,COL MAX. CHANGE LAYER,ROW,COL MAX. CHANGE LAYER,ROW,COL
 ------------------------------------------------------------------------------------------------------------------------------------
    0.000     (  1,  1,  1)   0.000     (  1,  1,  1)


                     STREAM MASS BUDGETS AT END OF TRANSPORT STEP   83, TIME STEP    1, STRESS PERIOD    1 FOR COMPONENT   1
                     -------------------------------------------------------------------------------------------------------

                                         CUMULATIVE MASS [M]                                     MASS FOR THIS TIME STEP [M]
                                         -------------------                                    --------------
                      STREAM DEPLETION =  0.3986052E-04                      STREAM DEPLETION =  0.3006062E-07
                      INFLOW TO STREAM =   690.9756                          INFLOW TO STREAM =   8.325000    
                          GW TO STREAM =   82.92022                              GW TO STREAM =  0.9990391    
                         PRECIPITATION =   0.000000                             PRECIPITATION =   0.000000    
                                RUNOFF =   0.000000                                    RUNOFF =   0.000000    
                CONSTANT CONCENTRATION =   0.000000                    CONSTANT CONCENTRATION =   0.000000    
                             MASS GAIN =   0.000000                                 MASS GAIN =   0.000000    
                                         -------------------                                    --------------
                              TOTAL IN =   773.8959                                  TOTAL IN =   9.324039    

                   STREAM ACCUMULATION =  0.9474314E-03                   STREAM ACCUMULATION =  0.1001787E-04
                        STREAM OUTFLOW =   773.8948                            STREAM OUTFLOW =   9.324031    
                          STREAM TO GW =   0.000000                              STREAM TO GW =   0.000000    
                CONSTANT CONCENTRATION =   0.000000                    CONSTANT CONCENTRATION =   0.000000    
                           EVAPORATION =   0.000000                               EVAPORATION =   0.000000    
                             MASS LOSS =   0.000000                                 MASS LOSS =   0.000000    
                                         -------------------                                    --------------
                             TOTAL OUT =   773.8958                                 TOTAL OUT =   9.324041    

                        NET (IN - OUT) =  0.6103516E-04                        NET (IN - OUT) = -0.2861023E-05
                 DISCREPANCY (PERCENT) =  0.7886740E-05                 DISCREPANCY (PERCENT) = -0.3068437E-04
                                              FLOW ERR (QIN-QOUT-DV) = -0.9536743E-06 [L3/T]




 >>>>>>>>>>>>>>>>>>>>>>>>>>>>>>>>>>>>>>>>>>>>>>>>>>>>>>>FOR COMPONENT NO. 01<<<<<<<<<<<<<<<<<<<<<<<<<<<<<<<<<<<<<<<<<<<<<<<<<<<<<<<


                                            -------------------------------------------
                                                      TRANSPORT STEP NO.   83
                                            -------------------------------------------

 TOTAL ELAPSED TIME SINCE BEGINNING OF SIMULATION =   14940.00    D   
 .....................................................................

                     CUMULATIVE MASS BUDGETS AT END OF TRANSPORT STEP   83, TIME STEP    1, STRESS PERIOD    1
                     -----------------------------------------------------------------------------------------

                                                             IN                           OUT
                                                      ----------------             ----------------
                               CONSTANT CONCENTRATION:    0.000000                    0.000000    
                                        CONSTANT HEAD:    186.4844                   -103.5665    
                                               STREAM:    0.000000                   -82.92022    
                               MASS STOR (FLOW MODEL):   0.2519284E-02              -0.3411116E-07
                                MASS STORAGE (SOLUTE):    0.000000                    0.000000    
                            ---------------------------------------------------------------------------
                                              [TOTAL]:    186.4869     KG            -186.4867     KG  

                                                          NET (IN - OUT):   0.1525879E-03
                                                   DISCREPANCY (PERCENT):   0.8182236E-04
     2 CALLS TO GCG PACKAGE FOR TRANSPORT TIME STEP    84 IN FLOW TIME STEP     1 STRESS PERIOD     1
      2 TOTAL ITERATIONS
  MAXIMUM CONCENTRATION CHANGES FOR EACH ITERATION:
  MAX. CHANGE LAYER,ROW,COL MAX. CHANGE LAYER,ROW,COL MAX. CHANGE LAYER,ROW,COL MAX. CHANGE LAYER,ROW,COL MAX. CHANGE LAYER,ROW,COL
 ------------------------------------------------------------------------------------------------------------------------------------
    0.000     (  1,  1,  1)   0.000     (  1,  1,  1)


                     STREAM MASS BUDGETS AT END OF TRANSPORT STEP   84, TIME STEP    1, STRESS PERIOD    1 FOR COMPONENT   1
                     -------------------------------------------------------------------------------------------------------

                                         CUMULATIVE MASS [M]                                     MASS FOR THIS TIME STEP [M]
                                         -------------------                                    --------------
                      STREAM DEPLETION =  0.3989032E-04                      STREAM DEPLETION =  0.2980524E-07
                      INFLOW TO STREAM =   699.3006                          INFLOW TO STREAM =   8.325000    
                          GW TO STREAM =   83.91926                              GW TO STREAM =  0.9990391    
                         PRECIPITATION =   0.000000                             PRECIPITATION =   0.000000    
                                RUNOFF =   0.000000                                    RUNOFF =   0.000000    
                CONSTANT CONCENTRATION =   0.000000                    CONSTANT CONCENTRATION =   0.000000    
                             MASS GAIN =   0.000000                                 MASS GAIN =   0.000000    
                                         -------------------                                    --------------
                              TOTAL IN =   783.2199                                  TOTAL IN =   9.324039    

                   STREAM ACCUMULATION =  0.9573143E-03                   STREAM ACCUMULATION =  0.9882910E-05
                        STREAM OUTFLOW =   783.2189                            STREAM OUTFLOW =   9.324031    
                          STREAM TO GW =   0.000000                              STREAM TO GW =   0.000000    
                CONSTANT CONCENTRATION =   0.000000                    CONSTANT CONCENTRATION =   0.000000    
                           EVAPORATION =   0.000000                               EVAPORATION =   0.000000    
                             MASS LOSS =   0.000000                                 MASS LOSS =   0.000000    
                                         -------------------                                    --------------
                             TOTAL OUT =   783.2198                                 TOTAL OUT =   9.324040    

                        NET (IN - OUT) =  0.6103516E-04                        NET (IN - OUT) = -0.1907349E-05
                 DISCREPANCY (PERCENT) =  0.7792851E-05                 DISCREPANCY (PERCENT) = -0.2045625E-04
                                              FLOW ERR (QIN-QOUT-DV) = -0.9536743E-06 [L3/T]




 >>>>>>>>>>>>>>>>>>>>>>>>>>>>>>>>>>>>>>>>>>>>>>>>>>>>>>>FOR COMPONENT NO. 01<<<<<<<<<<<<<<<<<<<<<<<<<<<<<<<<<<<<<<<<<<<<<<<<<<<<<<<


                                            -------------------------------------------
                                                      TRANSPORT STEP NO.   84
                                            -------------------------------------------

 TOTAL ELAPSED TIME SINCE BEGINNING OF SIMULATION =   15120.00    D   
 .....................................................................

                     CUMULATIVE MASS BUDGETS AT END OF TRANSPORT STEP   84, TIME STEP    1, STRESS PERIOD    1
                     -----------------------------------------------------------------------------------------

                                                             IN                           OUT
                                                      ----------------             ----------------
                               CONSTANT CONCENTRATION:    0.000000                    0.000000    
                                        CONSTANT HEAD:    188.7312                   -104.8143    
                                               STREAM:    0.000000                   -83.91926    
                               MASS STOR (FLOW MODEL):   0.2549637E-02              -0.3452213E-07
                                MASS STORAGE (SOLUTE):    0.000000                    0.000000    
                            ---------------------------------------------------------------------------
                                              [TOTAL]:    188.7337     KG            -188.7336     KG  

                                                          NET (IN - OUT):   0.1525879E-03
                                                   DISCREPANCY (PERCENT):   0.8084828E-04
     2 CALLS TO GCG PACKAGE FOR TRANSPORT TIME STEP    85 IN FLOW TIME STEP     1 STRESS PERIOD     1
      2 TOTAL ITERATIONS
  MAXIMUM CONCENTRATION CHANGES FOR EACH ITERATION:
  MAX. CHANGE LAYER,ROW,COL MAX. CHANGE LAYER,ROW,COL MAX. CHANGE LAYER,ROW,COL MAX. CHANGE LAYER,ROW,COL MAX. CHANGE LAYER,ROW,COL
 ------------------------------------------------------------------------------------------------------------------------------------
    0.000     (  1,  1,  1)   0.000     (  1,  1,  1)


                     STREAM MASS BUDGETS AT END OF TRANSPORT STEP   85, TIME STEP    1, STRESS PERIOD    1 FOR COMPONENT   1
                     -------------------------------------------------------------------------------------------------------

                                         CUMULATIVE MASS [M]                                     MASS FOR THIS TIME STEP [M]
                                         -------------------                                    --------------
                      STREAM DEPLETION =  0.3991985E-04                      STREAM DEPLETION =  0.2952575E-07
                      INFLOW TO STREAM =   707.6256                          INFLOW TO STREAM =   8.325000    
                          GW TO STREAM =   84.91830                              GW TO STREAM =  0.9990391    
                         PRECIPITATION =   0.000000                             PRECIPITATION =   0.000000    
                                RUNOFF =   0.000000                                    RUNOFF =   0.000000    
                CONSTANT CONCENTRATION =   0.000000                    CONSTANT CONCENTRATION =   0.000000    
                             MASS GAIN =   0.000000                                 MASS GAIN =   0.000000    
                                         -------------------                                    --------------
                              TOTAL IN =   792.5439                                  TOTAL IN =   9.324039    

                   STREAM ACCUMULATION =  0.9670542E-03                   STREAM ACCUMULATION =  0.9739819E-05
                        STREAM OUTFLOW =   792.5429                            STREAM OUTFLOW =   9.324031    
                          STREAM TO GW =   0.000000                              STREAM TO GW =   0.000000    
                CONSTANT CONCENTRATION =   0.000000                    CONSTANT CONCENTRATION =   0.000000    
                           EVAPORATION =   0.000000                               EVAPORATION =   0.000000    
                             MASS LOSS =   0.000000                                 MASS LOSS =   0.000000    
                                         -------------------                                    --------------
                             TOTAL OUT =   792.5439                                 TOTAL OUT =   9.324040    

                        NET (IN - OUT) =  0.6103516E-04                        NET (IN - OUT) = -0.1907349E-05
                 DISCREPANCY (PERCENT) =  0.7701170E-05                 DISCREPANCY (PERCENT) = -0.2045625E-04
                                              FLOW ERR (QIN-QOUT-DV) = -0.9536743E-06 [L3/T]




 >>>>>>>>>>>>>>>>>>>>>>>>>>>>>>>>>>>>>>>>>>>>>>>>>>>>>>>FOR COMPONENT NO. 01<<<<<<<<<<<<<<<<<<<<<<<<<<<<<<<<<<<<<<<<<<<<<<<<<<<<<<<


                                            -------------------------------------------
                                                      TRANSPORT STEP NO.   85
                                            -------------------------------------------

 TOTAL ELAPSED TIME SINCE BEGINNING OF SIMULATION =   15300.00    D   
 .....................................................................

                     CUMULATIVE MASS BUDGETS AT END OF TRANSPORT STEP   85, TIME STEP    1, STRESS PERIOD    1
                     -----------------------------------------------------------------------------------------

                                                             IN                           OUT
                                                      ----------------             ----------------
                               CONSTANT CONCENTRATION:    0.000000                    0.000000    
                                        CONSTANT HEAD:    190.9780                   -106.0621    
                                               STREAM:    0.000000                   -84.91830    
                               MASS STOR (FLOW MODEL):   0.2579990E-02              -0.3493311E-07
                                MASS STORAGE (SOLUTE):    0.000000                    0.000000    
                            ---------------------------------------------------------------------------
                                              [TOTAL]:    190.9805     KG            -190.9804     KG  

                                                          NET (IN - OUT):   0.1525879E-03
                                                   DISCREPANCY (PERCENT):   0.7989712E-04
     2 CALLS TO GCG PACKAGE FOR TRANSPORT TIME STEP    86 IN FLOW TIME STEP     1 STRESS PERIOD     1
      2 TOTAL ITERATIONS
  MAXIMUM CONCENTRATION CHANGES FOR EACH ITERATION:
  MAX. CHANGE LAYER,ROW,COL MAX. CHANGE LAYER,ROW,COL MAX. CHANGE LAYER,ROW,COL MAX. CHANGE LAYER,ROW,COL MAX. CHANGE LAYER,ROW,COL
 ------------------------------------------------------------------------------------------------------------------------------------
    0.000     (  1,  1,  1)   0.000     (  1,  1,  1)


                     STREAM MASS BUDGETS AT END OF TRANSPORT STEP   86, TIME STEP    1, STRESS PERIOD    1 FOR COMPONENT   1
                     -------------------------------------------------------------------------------------------------------

                                         CUMULATIVE MASS [M]                                     MASS FOR THIS TIME STEP [M]
                                         -------------------                                    --------------
                      STREAM DEPLETION =  0.3994909E-04                      STREAM DEPLETION =  0.2923856E-07
                      INFLOW TO STREAM =   715.9506                          INFLOW TO STREAM =   8.325000    
                          GW TO STREAM =   85.91734                              GW TO STREAM =  0.9990391    
                         PRECIPITATION =   0.000000                             PRECIPITATION =   0.000000    
                                RUNOFF =   0.000000                                    RUNOFF =   0.000000    
                CONSTANT CONCENTRATION =   0.000000                    CONSTANT CONCENTRATION =   0.000000    
                             MASS GAIN =   0.000000                                 MASS GAIN =   0.000000    
                                         -------------------                                    --------------
                              TOTAL IN =   801.8680                                  TOTAL IN =   9.324039    

                   STREAM ACCUMULATION =  0.9766428E-03                   STREAM ACCUMULATION =  0.9588683E-05
                        STREAM OUTFLOW =   801.8669                            STREAM OUTFLOW =   9.324031    
                          STREAM TO GW =   0.000000                              STREAM TO GW =   0.000000    
                CONSTANT CONCENTRATION =   0.000000                    CONSTANT CONCENTRATION =   0.000000    
                           EVAPORATION =   0.000000                               EVAPORATION =   0.000000    
                             MASS LOSS =   0.000000                                 MASS LOSS =   0.000000    
                                         -------------------                                    --------------
                             TOTAL OUT =   801.8679                                 TOTAL OUT =   9.324040    

                        NET (IN - OUT) =  0.6103516E-04                        NET (IN - OUT) = -0.1907349E-05
                 DISCREPANCY (PERCENT) =  0.7611622E-05                 DISCREPANCY (PERCENT) = -0.2045625E-04
                                              FLOW ERR (QIN-QOUT-DV) = -0.9536743E-06 [L3/T]




 >>>>>>>>>>>>>>>>>>>>>>>>>>>>>>>>>>>>>>>>>>>>>>>>>>>>>>>FOR COMPONENT NO. 01<<<<<<<<<<<<<<<<<<<<<<<<<<<<<<<<<<<<<<<<<<<<<<<<<<<<<<<


                                            -------------------------------------------
                                                      TRANSPORT STEP NO.   86
                                            -------------------------------------------

 TOTAL ELAPSED TIME SINCE BEGINNING OF SIMULATION =   15480.00    D   
 .....................................................................

                     CUMULATIVE MASS BUDGETS AT END OF TRANSPORT STEP   86, TIME STEP    1, STRESS PERIOD    1
                     -----------------------------------------------------------------------------------------

                                                             IN                           OUT
                                                      ----------------             ----------------
                               CONSTANT CONCENTRATION:    0.000000                    0.000000    
                                        CONSTANT HEAD:    193.2247                   -107.3099    
                                               STREAM:    0.000000                   -85.91734    
                               MASS STOR (FLOW MODEL):   0.2610342E-02              -0.3534409E-07
                                MASS STORAGE (SOLUTE):    0.000000                    0.000000    
                            ---------------------------------------------------------------------------
                                              [TOTAL]:    193.2274     KG            -193.2272     KG  

                                                          NET (IN - OUT):   0.1525879E-03
                                                   DISCREPANCY (PERCENT):   0.7896809E-04
     2 CALLS TO GCG PACKAGE FOR TRANSPORT TIME STEP    87 IN FLOW TIME STEP     1 STRESS PERIOD     1
      2 TOTAL ITERATIONS
  MAXIMUM CONCENTRATION CHANGES FOR EACH ITERATION:
  MAX. CHANGE LAYER,ROW,COL MAX. CHANGE LAYER,ROW,COL MAX. CHANGE LAYER,ROW,COL MAX. CHANGE LAYER,ROW,COL MAX. CHANGE LAYER,ROW,COL
 ------------------------------------------------------------------------------------------------------------------------------------
    0.000     (  1,  1,  1)   0.000     (  1,  1,  1)


                     STREAM MASS BUDGETS AT END OF TRANSPORT STEP   87, TIME STEP    1, STRESS PERIOD    1 FOR COMPONENT   1
                     -------------------------------------------------------------------------------------------------------

                                         CUMULATIVE MASS [M]                                     MASS FOR THIS TIME STEP [M]
                                         -------------------                                    --------------
                      STREAM DEPLETION =  0.3997796E-04                      STREAM DEPLETION =  0.2887633E-07
                      INFLOW TO STREAM =   724.2756                          INFLOW TO STREAM =   8.325000    
                          GW TO STREAM =   86.91637                              GW TO STREAM =  0.9990391    
                         PRECIPITATION =   0.000000                             PRECIPITATION =   0.000000    
                                RUNOFF =   0.000000                                    RUNOFF =   0.000000    
                CONSTANT CONCENTRATION =   0.000000                    CONSTANT CONCENTRATION =   0.000000    
                             MASS GAIN =   0.000000                                 MASS GAIN =   0.000000    
                                         -------------------                                    --------------
                              TOTAL IN =   811.1920                                  TOTAL IN =   9.324039    

                   STREAM ACCUMULATION =  0.9860726E-03                   STREAM ACCUMULATION =  0.9429776E-05
                        STREAM OUTFLOW =   811.1910                            STREAM OUTFLOW =   9.324032    
                          STREAM TO GW =   0.000000                              STREAM TO GW =   0.000000    
                CONSTANT CONCENTRATION =   0.000000                    CONSTANT CONCENTRATION =   0.000000    
                           EVAPORATION =   0.000000                               EVAPORATION =   0.000000    
                             MASS LOSS =   0.000000                                 MASS LOSS =   0.000000    
                                         -------------------                                    --------------
                             TOTAL OUT =   811.1920                                 TOTAL OUT =   9.324041    

                        NET (IN - OUT) =  0.6103516E-04                        NET (IN - OUT) = -0.2861023E-05
                 DISCREPANCY (PERCENT) =  0.7524132E-05                 DISCREPANCY (PERCENT) = -0.3068437E-04
                                              FLOW ERR (QIN-QOUT-DV) = -0.9536743E-06 [L3/T]




 >>>>>>>>>>>>>>>>>>>>>>>>>>>>>>>>>>>>>>>>>>>>>>>>>>>>>>>FOR COMPONENT NO. 01<<<<<<<<<<<<<<<<<<<<<<<<<<<<<<<<<<<<<<<<<<<<<<<<<<<<<<<


                                            -------------------------------------------
                                                      TRANSPORT STEP NO.   87
                                            -------------------------------------------

 TOTAL ELAPSED TIME SINCE BEGINNING OF SIMULATION =   15660.00    D   
 .....................................................................

                     CUMULATIVE MASS BUDGETS AT END OF TRANSPORT STEP   87, TIME STEP    1, STRESS PERIOD    1
                     -----------------------------------------------------------------------------------------

                                                             IN                           OUT
                                                      ----------------             ----------------
                               CONSTANT CONCENTRATION:    0.000000                    0.000000    
                                        CONSTANT HEAD:    195.4715                   -108.5577    
                                               STREAM:    0.000000                   -86.91637    
                               MASS STOR (FLOW MODEL):   0.2640695E-02              -0.3575507E-07
                                MASS STORAGE (SOLUTE):    0.000000                    0.000000    
                            ---------------------------------------------------------------------------
                                              [TOTAL]:    195.4742     KG            -195.4740     KG  

                                                          NET (IN - OUT):   0.1525879E-03
                                                   DISCREPANCY (PERCENT):   0.7806041E-04
     2 CALLS TO GCG PACKAGE FOR TRANSPORT TIME STEP    88 IN FLOW TIME STEP     1 STRESS PERIOD     1
      2 TOTAL ITERATIONS
  MAXIMUM CONCENTRATION CHANGES FOR EACH ITERATION:
  MAX. CHANGE LAYER,ROW,COL MAX. CHANGE LAYER,ROW,COL MAX. CHANGE LAYER,ROW,COL MAX. CHANGE LAYER,ROW,COL MAX. CHANGE LAYER,ROW,COL
 ------------------------------------------------------------------------------------------------------------------------------------
    0.000     (  1,  1,  1)   0.000     (  1,  1,  1)


                     STREAM MASS BUDGETS AT END OF TRANSPORT STEP   88, TIME STEP    1, STRESS PERIOD    1 FOR COMPONENT   1
                     -------------------------------------------------------------------------------------------------------

                                         CUMULATIVE MASS [M]                                     MASS FOR THIS TIME STEP [M]
                                         -------------------                                    --------------
                      STREAM DEPLETION =  0.4000655E-04                      STREAM DEPLETION =  0.2859228E-07
                      INFLOW TO STREAM =   732.6006                          INFLOW TO STREAM =   8.325000    
                          GW TO STREAM =   87.91541                              GW TO STREAM =  0.9990391    
                         PRECIPITATION =   0.000000                             PRECIPITATION =   0.000000    
                                RUNOFF =   0.000000                                    RUNOFF =   0.000000    
                CONSTANT CONCENTRATION =   0.000000                    CONSTANT CONCENTRATION =   0.000000    
                             MASS GAIN =   0.000000                                 MASS GAIN =   0.000000    
                                         -------------------                                    --------------
                              TOTAL IN =   820.5161                                  TOTAL IN =   9.324039    

                   STREAM ACCUMULATION =  0.9953360E-03                   STREAM ACCUMULATION =  0.9263435E-05
                        STREAM OUTFLOW =   820.5150                            STREAM OUTFLOW =   9.324032    
                          STREAM TO GW =   0.000000                              STREAM TO GW =   0.000000    
                CONSTANT CONCENTRATION =   0.000000                    CONSTANT CONCENTRATION =   0.000000    
                           EVAPORATION =   0.000000                               EVAPORATION =   0.000000    
                             MASS LOSS =   0.000000                                 MASS LOSS =   0.000000    
                                         -------------------                                    --------------
                             TOTAL OUT =   820.5160                                 TOTAL OUT =   9.324041    

                        NET (IN - OUT) =  0.1220703E-03                        NET (IN - OUT) = -0.2861023E-05
                 DISCREPANCY (PERCENT) =  0.1487726E-04                 DISCREPANCY (PERCENT) = -0.3068437E-04
                                              FLOW ERR (QIN-QOUT-DV) = -0.9536743E-06 [L3/T]




 >>>>>>>>>>>>>>>>>>>>>>>>>>>>>>>>>>>>>>>>>>>>>>>>>>>>>>>FOR COMPONENT NO. 01<<<<<<<<<<<<<<<<<<<<<<<<<<<<<<<<<<<<<<<<<<<<<<<<<<<<<<<


                                            -------------------------------------------
                                                      TRANSPORT STEP NO.   88
                                            -------------------------------------------

 TOTAL ELAPSED TIME SINCE BEGINNING OF SIMULATION =   15840.00    D   
 .....................................................................

                     CUMULATIVE MASS BUDGETS AT END OF TRANSPORT STEP   88, TIME STEP    1, STRESS PERIOD    1
                     -----------------------------------------------------------------------------------------

                                                             IN                           OUT
                                                      ----------------             ----------------
                               CONSTANT CONCENTRATION:    0.000000                    0.000000    
                                        CONSTANT HEAD:    197.7183                   -109.8055    
                                               STREAM:    0.000000                   -87.91541    
                               MASS STOR (FLOW MODEL):   0.2671048E-02              -0.3616605E-07
                                MASS STORAGE (SOLUTE):    0.000000                    0.000000    
                            ---------------------------------------------------------------------------
                                              [TOTAL]:    197.7210     KG            -197.7209     KG  

                                                          NET (IN - OUT):   0.1525879E-03
                                                   DISCREPANCY (PERCENT):   0.7717336E-04
     2 CALLS TO GCG PACKAGE FOR TRANSPORT TIME STEP    89 IN FLOW TIME STEP     1 STRESS PERIOD     1
      2 TOTAL ITERATIONS
  MAXIMUM CONCENTRATION CHANGES FOR EACH ITERATION:
  MAX. CHANGE LAYER,ROW,COL MAX. CHANGE LAYER,ROW,COL MAX. CHANGE LAYER,ROW,COL MAX. CHANGE LAYER,ROW,COL MAX. CHANGE LAYER,ROW,COL
 ------------------------------------------------------------------------------------------------------------------------------------
    0.000     (  1,  1,  1)   0.000     (  1,  1,  1)


                     STREAM MASS BUDGETS AT END OF TRANSPORT STEP   89, TIME STEP    1, STRESS PERIOD    1 FOR COMPONENT   1
                     -------------------------------------------------------------------------------------------------------

                                         CUMULATIVE MASS [M]                                     MASS FOR THIS TIME STEP [M]
                                         -------------------                                    --------------
                      STREAM DEPLETION =  0.4003491E-04                      STREAM DEPLETION =  0.2836298E-07
                      INFLOW TO STREAM =   740.9257                          INFLOW TO STREAM =   8.325000    
                          GW TO STREAM =   88.91445                              GW TO STREAM =  0.9990391    
                         PRECIPITATION =   0.000000                             PRECIPITATION =   0.000000    
                                RUNOFF =   0.000000                                    RUNOFF =   0.000000    
                CONSTANT CONCENTRATION =   0.000000                    CONSTANT CONCENTRATION =   0.000000    
                             MASS GAIN =   0.000000                                 MASS GAIN =   0.000000    
                                         -------------------                                    --------------
                              TOTAL IN =   829.8401                                  TOTAL IN =   9.324039    

                   STREAM ACCUMULATION =  0.1004426E-02                   STREAM ACCUMULATION =  0.9090076E-05
                        STREAM OUTFLOW =   829.8391                            STREAM OUTFLOW =   9.324032    
                          STREAM TO GW =   0.000000                              STREAM TO GW =   0.000000    
                CONSTANT CONCENTRATION =   0.000000                    CONSTANT CONCENTRATION =   0.000000    
                           EVAPORATION =   0.000000                               EVAPORATION =   0.000000    
                             MASS LOSS =   0.000000                                 MASS LOSS =   0.000000    
                                         -------------------                                    --------------
                             TOTAL OUT =   829.8400                                 TOTAL OUT =   9.324041    

                        NET (IN - OUT) =  0.1220703E-03                        NET (IN - OUT) = -0.2861023E-05
                 DISCREPANCY (PERCENT) =  0.1471010E-04                 DISCREPANCY (PERCENT) = -0.3068437E-04
                                              FLOW ERR (QIN-QOUT-DV) = -0.9536743E-06 [L3/T]




 >>>>>>>>>>>>>>>>>>>>>>>>>>>>>>>>>>>>>>>>>>>>>>>>>>>>>>>FOR COMPONENT NO. 01<<<<<<<<<<<<<<<<<<<<<<<<<<<<<<<<<<<<<<<<<<<<<<<<<<<<<<<


                                            -------------------------------------------
                                                      TRANSPORT STEP NO.   89
                                            -------------------------------------------

 TOTAL ELAPSED TIME SINCE BEGINNING OF SIMULATION =   16020.00    D   
 .....................................................................

                     CUMULATIVE MASS BUDGETS AT END OF TRANSPORT STEP   89, TIME STEP    1, STRESS PERIOD    1
                     -----------------------------------------------------------------------------------------

                                                             IN                           OUT
                                                      ----------------             ----------------
                               CONSTANT CONCENTRATION:    0.000000                    0.000000    
                                        CONSTANT HEAD:    199.9651                   -111.0532    
                                               STREAM:    0.000000                   -88.91445    
                               MASS STOR (FLOW MODEL):   0.2701401E-02              -0.3657702E-07
                                MASS STORAGE (SOLUTE):    0.000000                    0.000000    
                            ---------------------------------------------------------------------------
                                              [TOTAL]:    199.9678     KG            -199.9677     KG  

                                                          NET (IN - OUT):   0.1525879E-03
                                                   DISCREPANCY (PERCENT):   0.7630625E-04
     2 CALLS TO GCG PACKAGE FOR TRANSPORT TIME STEP    90 IN FLOW TIME STEP     1 STRESS PERIOD     1
      2 TOTAL ITERATIONS
  MAXIMUM CONCENTRATION CHANGES FOR EACH ITERATION:
  MAX. CHANGE LAYER,ROW,COL MAX. CHANGE LAYER,ROW,COL MAX. CHANGE LAYER,ROW,COL MAX. CHANGE LAYER,ROW,COL MAX. CHANGE LAYER,ROW,COL
 ------------------------------------------------------------------------------------------------------------------------------------
    0.000     (  1,  1,  1)   0.000     (  1,  1,  1)


                     STREAM MASS BUDGETS AT END OF TRANSPORT STEP   90, TIME STEP    1, STRESS PERIOD    1 FOR COMPONENT   1
                     -------------------------------------------------------------------------------------------------------

                                         CUMULATIVE MASS [M]                                     MASS FOR THIS TIME STEP [M]
                                         -------------------                                    --------------
                      STREAM DEPLETION =  0.4006292E-04                      STREAM DEPLETION =  0.2800945E-07
                      INFLOW TO STREAM =   749.2507                          INFLOW TO STREAM =   8.325000    
                          GW TO STREAM =   89.91349                              GW TO STREAM =  0.9990391    
                         PRECIPITATION =   0.000000                             PRECIPITATION =   0.000000    
                                RUNOFF =   0.000000                                    RUNOFF =   0.000000    
                CONSTANT CONCENTRATION =   0.000000                    CONSTANT CONCENTRATION =   0.000000    
                             MASS GAIN =   0.000000                                 MASS GAIN =   0.000000    
                                         -------------------                                    --------------
                              TOTAL IN =   839.1642                                  TOTAL IN =   9.324039    

                   STREAM ACCUMULATION =  0.1013336E-02                   STREAM ACCUMULATION =  0.8909797E-05
                        STREAM OUTFLOW =   839.1631                            STREAM OUTFLOW =   9.324032    
                          STREAM TO GW =   0.000000                              STREAM TO GW =   0.000000    
                CONSTANT CONCENTRATION =   0.000000                    CONSTANT CONCENTRATION =   0.000000    
                           EVAPORATION =   0.000000                               EVAPORATION =   0.000000    
                             MASS LOSS =   0.000000                                 MASS LOSS =   0.000000    
                                         -------------------                                    --------------
                             TOTAL OUT =   839.1641                                 TOTAL OUT =   9.324040    

                        NET (IN - OUT) =  0.6103516E-04                        NET (IN - OUT) = -0.1907349E-05
                 DISCREPANCY (PERCENT) =  0.7273327E-05                 DISCREPANCY (PERCENT) = -0.2045625E-04
                                              FLOW ERR (QIN-QOUT-DV) = -0.9536743E-06 [L3/T]




 >>>>>>>>>>>>>>>>>>>>>>>>>>>>>>>>>>>>>>>>>>>>>>>>>>>>>>>FOR COMPONENT NO. 01<<<<<<<<<<<<<<<<<<<<<<<<<<<<<<<<<<<<<<<<<<<<<<<<<<<<<<<


                                            -------------------------------------------
                                                      TRANSPORT STEP NO.   90
                                            -------------------------------------------

 TOTAL ELAPSED TIME SINCE BEGINNING OF SIMULATION =   16200.00    D   
 .....................................................................

                     CUMULATIVE MASS BUDGETS AT END OF TRANSPORT STEP   90, TIME STEP    1, STRESS PERIOD    1
                     -----------------------------------------------------------------------------------------

                                                             IN                           OUT
                                                      ----------------             ----------------
                               CONSTANT CONCENTRATION:    0.000000                    0.000000    
                                        CONSTANT HEAD:    202.2119                   -112.3010    
                                               STREAM:    0.000000                   -89.91349    
                               MASS STOR (FLOW MODEL):   0.2731753E-02              -0.3698800E-07
                                MASS STORAGE (SOLUTE):    0.000000                    0.000000    
                            ---------------------------------------------------------------------------
                                              [TOTAL]:    202.2147     KG            -202.2145     KG  

                                                          NET (IN - OUT):   0.1525879E-03
                                                   DISCREPANCY (PERCENT):   0.7545840E-04
     2 CALLS TO GCG PACKAGE FOR TRANSPORT TIME STEP    91 IN FLOW TIME STEP     1 STRESS PERIOD     1
      2 TOTAL ITERATIONS
  MAXIMUM CONCENTRATION CHANGES FOR EACH ITERATION:
  MAX. CHANGE LAYER,ROW,COL MAX. CHANGE LAYER,ROW,COL MAX. CHANGE LAYER,ROW,COL MAX. CHANGE LAYER,ROW,COL MAX. CHANGE LAYER,ROW,COL
 ------------------------------------------------------------------------------------------------------------------------------------
    0.000     (  1,  1,  1)   0.000     (  1,  1,  1)


                     STREAM MASS BUDGETS AT END OF TRANSPORT STEP   91, TIME STEP    1, STRESS PERIOD    1 FOR COMPONENT   1
                     -------------------------------------------------------------------------------------------------------

                                         CUMULATIVE MASS [M]                                     MASS FOR THIS TIME STEP [M]
                                         -------------------                                    --------------
                      STREAM DEPLETION =  0.4009064E-04                      STREAM DEPLETION =  0.2771598E-07
                      INFLOW TO STREAM =   757.5757                          INFLOW TO STREAM =   8.325000    
                          GW TO STREAM =   90.91253                              GW TO STREAM =  0.9990391    
                         PRECIPITATION =   0.000000                             PRECIPITATION =   0.000000    
                                RUNOFF =   0.000000                                    RUNOFF =   0.000000    
                CONSTANT CONCENTRATION =   0.000000                    CONSTANT CONCENTRATION =   0.000000    
                             MASS GAIN =   0.000000                                 MASS GAIN =   0.000000    
                                         -------------------                                    --------------
                              TOTAL IN =   848.4883                                  TOTAL IN =   9.324039    

                   STREAM ACCUMULATION =  0.1022059E-02                   STREAM ACCUMULATION =  0.8723312E-05
                        STREAM OUTFLOW =   848.4871                            STREAM OUTFLOW =   9.324032    
                          STREAM TO GW =   0.000000                              STREAM TO GW =   0.000000    
                CONSTANT CONCENTRATION =   0.000000                    CONSTANT CONCENTRATION =   0.000000    
                           EVAPORATION =   0.000000                               EVAPORATION =   0.000000    
                             MASS LOSS =   0.000000                                 MASS LOSS =   0.000000    
                                         -------------------                                    --------------
                             TOTAL OUT =   848.4882                                 TOTAL OUT =   9.324040    

                        NET (IN - OUT) =  0.1220703E-03                        NET (IN - OUT) = -0.1907349E-05
                 DISCREPANCY (PERCENT) =  0.1438680E-04                 DISCREPANCY (PERCENT) = -0.2045625E-04
                                              FLOW ERR (QIN-QOUT-DV) = -0.9536743E-06 [L3/T]




 >>>>>>>>>>>>>>>>>>>>>>>>>>>>>>>>>>>>>>>>>>>>>>>>>>>>>>>FOR COMPONENT NO. 01<<<<<<<<<<<<<<<<<<<<<<<<<<<<<<<<<<<<<<<<<<<<<<<<<<<<<<<


                                            -------------------------------------------
                                                      TRANSPORT STEP NO.   91
                                            -------------------------------------------

 TOTAL ELAPSED TIME SINCE BEGINNING OF SIMULATION =   16380.00    D   
 .....................................................................

                     CUMULATIVE MASS BUDGETS AT END OF TRANSPORT STEP   91, TIME STEP    1, STRESS PERIOD    1
                     -----------------------------------------------------------------------------------------

                                                             IN                           OUT
                                                      ----------------             ----------------
                               CONSTANT CONCENTRATION:    0.000000                    0.000000    
                                        CONSTANT HEAD:    204.4587                   -113.5488    
                                               STREAM:    0.000000                   -90.91253    
                               MASS STOR (FLOW MODEL):   0.2762106E-02              -0.3739898E-07
                                MASS STORAGE (SOLUTE):    0.000000                    0.000000    
                            ---------------------------------------------------------------------------
                                              [TOTAL]:    204.4615     KG            -204.4613     KG  

                                                          NET (IN - OUT):   0.1525879E-03
                                                   DISCREPANCY (PERCENT):   0.7462919E-04
     2 CALLS TO GCG PACKAGE FOR TRANSPORT TIME STEP    92 IN FLOW TIME STEP     1 STRESS PERIOD     1
      2 TOTAL ITERATIONS
  MAXIMUM CONCENTRATION CHANGES FOR EACH ITERATION:
  MAX. CHANGE LAYER,ROW,COL MAX. CHANGE LAYER,ROW,COL MAX. CHANGE LAYER,ROW,COL MAX. CHANGE LAYER,ROW,COL MAX. CHANGE LAYER,ROW,COL
 ------------------------------------------------------------------------------------------------------------------------------------
    0.000     (  1,  1,  1)   0.000     (  1,  1,  1)


                     STREAM MASS BUDGETS AT END OF TRANSPORT STEP   92, TIME STEP    1, STRESS PERIOD    1 FOR COMPONENT   1
                     -------------------------------------------------------------------------------------------------------

                                         CUMULATIVE MASS [M]                                     MASS FOR THIS TIME STEP [M]
                                         -------------------                                    --------------
                      STREAM DEPLETION =  0.4011796E-04                      STREAM DEPLETION =  0.2731935E-07
                      INFLOW TO STREAM =   765.9007                          INFLOW TO STREAM =   8.325000    
                          GW TO STREAM =   91.91157                              GW TO STREAM =  0.9990391    
                         PRECIPITATION =   0.000000                             PRECIPITATION =   0.000000    
                                RUNOFF =   0.000000                                    RUNOFF =   0.000000    
                CONSTANT CONCENTRATION =   0.000000                    CONSTANT CONCENTRATION =   0.000000    
                             MASS GAIN =   0.000000                                 MASS GAIN =   0.000000    
                                         -------------------                                    --------------
                              TOTAL IN =   857.8123                                  TOTAL IN =   9.324039    

                   STREAM ACCUMULATION =  0.1030590E-02                   STREAM ACCUMULATION =  0.8530822E-05
                        STREAM OUTFLOW =   857.8112                            STREAM OUTFLOW =   9.324033    
                          STREAM TO GW =   0.000000                              STREAM TO GW =   0.000000    
                CONSTANT CONCENTRATION =   0.000000                    CONSTANT CONCENTRATION =   0.000000    
                           EVAPORATION =   0.000000                               EVAPORATION =   0.000000    
                             MASS LOSS =   0.000000                                 MASS LOSS =   0.000000    
                                         -------------------                                    --------------
                             TOTAL OUT =   857.8122                                 TOTAL OUT =   9.324041    

                        NET (IN - OUT) =  0.1220703E-03                        NET (IN - OUT) = -0.2861023E-05
                 DISCREPANCY (PERCENT) =  0.1423042E-04                 DISCREPANCY (PERCENT) = -0.3068437E-04
                                              FLOW ERR (QIN-QOUT-DV) = -0.9536743E-06 [L3/T]




 >>>>>>>>>>>>>>>>>>>>>>>>>>>>>>>>>>>>>>>>>>>>>>>>>>>>>>>FOR COMPONENT NO. 01<<<<<<<<<<<<<<<<<<<<<<<<<<<<<<<<<<<<<<<<<<<<<<<<<<<<<<<


                                            -------------------------------------------
                                                      TRANSPORT STEP NO.   92
                                            -------------------------------------------

 TOTAL ELAPSED TIME SINCE BEGINNING OF SIMULATION =   16560.00    D   
 .....................................................................

                     CUMULATIVE MASS BUDGETS AT END OF TRANSPORT STEP   92, TIME STEP    1, STRESS PERIOD    1
                     -----------------------------------------------------------------------------------------

                                                             IN                           OUT
                                                      ----------------             ----------------
                               CONSTANT CONCENTRATION:    0.000000                    0.000000    
                                        CONSTANT HEAD:    206.7055                   -114.7966    
                                               STREAM:    0.000000                   -91.91157    
                               MASS STOR (FLOW MODEL):   0.2792459E-02              -0.3780996E-07
                                MASS STORAGE (SOLUTE):    0.000000                    0.000000    
                            ---------------------------------------------------------------------------
                                              [TOTAL]:    206.7083     KG            -206.7082     KG  

                                                          NET (IN - OUT):   0.1525879E-03
                                                   DISCREPANCY (PERCENT):   0.7381800E-04
     2 CALLS TO GCG PACKAGE FOR TRANSPORT TIME STEP    93 IN FLOW TIME STEP     1 STRESS PERIOD     1
      2 TOTAL ITERATIONS
  MAXIMUM CONCENTRATION CHANGES FOR EACH ITERATION:
  MAX. CHANGE LAYER,ROW,COL MAX. CHANGE LAYER,ROW,COL MAX. CHANGE LAYER,ROW,COL MAX. CHANGE LAYER,ROW,COL MAX. CHANGE LAYER,ROW,COL
 ------------------------------------------------------------------------------------------------------------------------------------
    0.000     (  1,  1,  1)   0.000     (  1,  1,  1)


                     STREAM MASS BUDGETS AT END OF TRANSPORT STEP   93, TIME STEP    1, STRESS PERIOD    1 FOR COMPONENT   1
                     -------------------------------------------------------------------------------------------------------

                                         CUMULATIVE MASS [M]                                     MASS FOR THIS TIME STEP [M]
                                         -------------------                                    --------------
                      STREAM DEPLETION =  0.4014511E-04                      STREAM DEPLETION =  0.2714848E-07
                      INFLOW TO STREAM =   774.2257                          INFLOW TO STREAM =   8.325000    
                          GW TO STREAM =   92.91061                              GW TO STREAM =  0.9990391    
                         PRECIPITATION =   0.000000                             PRECIPITATION =   0.000000    
                                RUNOFF =   0.000000                                    RUNOFF =   0.000000    
                CONSTANT CONCENTRATION =   0.000000                    CONSTANT CONCENTRATION =   0.000000    
                             MASS GAIN =   0.000000                                 MASS GAIN =   0.000000    
                                         -------------------                                    --------------
                              TOTAL IN =   867.1364                                  TOTAL IN =   9.324039    

                   STREAM ACCUMULATION =  0.1038923E-02                   STREAM ACCUMULATION =  0.8333259E-05
                        STREAM OUTFLOW =   867.1352                            STREAM OUTFLOW =   9.324033    
                          STREAM TO GW =   0.000000                              STREAM TO GW =   0.000000    
                CONSTANT CONCENTRATION =   0.000000                    CONSTANT CONCENTRATION =   0.000000    
                           EVAPORATION =   0.000000                               EVAPORATION =   0.000000    
                             MASS LOSS =   0.000000                                 MASS LOSS =   0.000000    
                                         -------------------                                    --------------
                             TOTAL OUT =   867.1362                                 TOTAL OUT =   9.324041    

                        NET (IN - OUT) =  0.1220703E-03                        NET (IN - OUT) = -0.2861023E-05
                 DISCREPANCY (PERCENT) =  0.1407741E-04                 DISCREPANCY (PERCENT) = -0.3068437E-04
                                              FLOW ERR (QIN-QOUT-DV) = -0.9536743E-06 [L3/T]




 >>>>>>>>>>>>>>>>>>>>>>>>>>>>>>>>>>>>>>>>>>>>>>>>>>>>>>>FOR COMPONENT NO. 01<<<<<<<<<<<<<<<<<<<<<<<<<<<<<<<<<<<<<<<<<<<<<<<<<<<<<<<


                                            -------------------------------------------
                                                      TRANSPORT STEP NO.   93
                                            -------------------------------------------

 TOTAL ELAPSED TIME SINCE BEGINNING OF SIMULATION =   16740.00    D   
 .....................................................................

                     CUMULATIVE MASS BUDGETS AT END OF TRANSPORT STEP   93, TIME STEP    1, STRESS PERIOD    1
                     -----------------------------------------------------------------------------------------

                                                             IN                           OUT
                                                      ----------------             ----------------
                               CONSTANT CONCENTRATION:    0.000000                    0.000000    
                                        CONSTANT HEAD:    208.9523                   -116.0444    
                                               STREAM:    0.000000                   -92.91061    
                               MASS STOR (FLOW MODEL):   0.2822811E-02              -0.3822094E-07
                                MASS STORAGE (SOLUTE):    0.000000                    0.000000    
                            ---------------------------------------------------------------------------
                                              [TOTAL]:    208.9551     KG            -208.9550     KG  

                                                          NET (IN - OUT):   0.1525879E-03
                                                   DISCREPANCY (PERCENT):   0.7302426E-04
     2 CALLS TO GCG PACKAGE FOR TRANSPORT TIME STEP    94 IN FLOW TIME STEP     1 STRESS PERIOD     1
      2 TOTAL ITERATIONS
  MAXIMUM CONCENTRATION CHANGES FOR EACH ITERATION:
  MAX. CHANGE LAYER,ROW,COL MAX. CHANGE LAYER,ROW,COL MAX. CHANGE LAYER,ROW,COL MAX. CHANGE LAYER,ROW,COL MAX. CHANGE LAYER,ROW,COL
 ------------------------------------------------------------------------------------------------------------------------------------
    0.000     (  1,  1,  1)   0.000     (  1,  1,  1)


                     STREAM MASS BUDGETS AT END OF TRANSPORT STEP   94, TIME STEP    1, STRESS PERIOD    1 FOR COMPONENT   1
                     -------------------------------------------------------------------------------------------------------

                                         CUMULATIVE MASS [M]                                     MASS FOR THIS TIME STEP [M]
                                         -------------------                                    --------------
                      STREAM DEPLETION =  0.4017181E-04                      STREAM DEPLETION =  0.2669753E-07
                      INFLOW TO STREAM =   782.5507                          INFLOW TO STREAM =   8.325000    
                          GW TO STREAM =   93.90965                              GW TO STREAM =  0.9990391    
                         PRECIPITATION =   0.000000                             PRECIPITATION =   0.000000    
                                RUNOFF =   0.000000                                    RUNOFF =   0.000000    
                CONSTANT CONCENTRATION =   0.000000                    CONSTANT CONCENTRATION =   0.000000    
                             MASS GAIN =   0.000000                                 MASS GAIN =   0.000000    
                                         -------------------                                    --------------
                              TOTAL IN =   876.4604                                  TOTAL IN =   9.324039    

                   STREAM ACCUMULATION =  0.1047054E-02                   STREAM ACCUMULATION =  0.8130537E-05
                        STREAM OUTFLOW =   876.4592                            STREAM OUTFLOW =   9.324033    
                          STREAM TO GW =   0.000000                              STREAM TO GW =   0.000000    
                CONSTANT CONCENTRATION =   0.000000                    CONSTANT CONCENTRATION =   0.000000    
                           EVAPORATION =   0.000000                               EVAPORATION =   0.000000    
                             MASS LOSS =   0.000000                                 MASS LOSS =   0.000000    
                                         -------------------                                    --------------
                             TOTAL OUT =   876.4603                                 TOTAL OUT =   9.324041    

                        NET (IN - OUT) =  0.1220703E-03                        NET (IN - OUT) = -0.2861023E-05
                 DISCREPANCY (PERCENT) =  0.1392765E-04                 DISCREPANCY (PERCENT) = -0.3068437E-04
                                              FLOW ERR (QIN-QOUT-DV) = -0.9536743E-06 [L3/T]




 >>>>>>>>>>>>>>>>>>>>>>>>>>>>>>>>>>>>>>>>>>>>>>>>>>>>>>>FOR COMPONENT NO. 01<<<<<<<<<<<<<<<<<<<<<<<<<<<<<<<<<<<<<<<<<<<<<<<<<<<<<<<


                                            -------------------------------------------
                                                      TRANSPORT STEP NO.   94
                                            -------------------------------------------

 TOTAL ELAPSED TIME SINCE BEGINNING OF SIMULATION =   16920.00    D   
 .....................................................................

                     CUMULATIVE MASS BUDGETS AT END OF TRANSPORT STEP   94, TIME STEP    1, STRESS PERIOD    1
                     -----------------------------------------------------------------------------------------

                                                             IN                           OUT
                                                      ----------------             ----------------
                               CONSTANT CONCENTRATION:    0.000000                    0.000000    
                                        CONSTANT HEAD:    211.1991                   -117.2922    
                                               STREAM:    0.000000                   -93.90965    
                               MASS STOR (FLOW MODEL):   0.2853164E-02              -0.3863191E-07
                                MASS STORAGE (SOLUTE):    0.000000                    0.000000    
                            ---------------------------------------------------------------------------
                                              [TOTAL]:    211.2020     KG            -211.2018     KG  

                                                          NET (IN - OUT):   0.1525879E-03
                                                   DISCREPANCY (PERCENT):   0.7224741E-04
     2 CALLS TO GCG PACKAGE FOR TRANSPORT TIME STEP    95 IN FLOW TIME STEP     1 STRESS PERIOD     1
      2 TOTAL ITERATIONS
  MAXIMUM CONCENTRATION CHANGES FOR EACH ITERATION:
  MAX. CHANGE LAYER,ROW,COL MAX. CHANGE LAYER,ROW,COL MAX. CHANGE LAYER,ROW,COL MAX. CHANGE LAYER,ROW,COL MAX. CHANGE LAYER,ROW,COL
 ------------------------------------------------------------------------------------------------------------------------------------
    0.000     (  1,  1,  1)   0.000     (  1,  1,  1)


                     STREAM MASS BUDGETS AT END OF TRANSPORT STEP   95, TIME STEP    1, STRESS PERIOD    1 FOR COMPONENT   1
                     -------------------------------------------------------------------------------------------------------

                                         CUMULATIVE MASS [M]                                     MASS FOR THIS TIME STEP [M]
                                         -------------------                                    --------------
                      STREAM DEPLETION =  0.4019835E-04                      STREAM DEPLETION =  0.2654247E-07
                      INFLOW TO STREAM =   790.8757                          INFLOW TO STREAM =   8.325000    
                          GW TO STREAM =   94.90868                              GW TO STREAM =  0.9990391    
                         PRECIPITATION =   0.000000                             PRECIPITATION =   0.000000    
                                RUNOFF =   0.000000                                    RUNOFF =   0.000000    
                CONSTANT CONCENTRATION =   0.000000                    CONSTANT CONCENTRATION =   0.000000    
                             MASS GAIN =   0.000000                                 MASS GAIN =   0.000000    
                                         -------------------                                    --------------
                              TOTAL IN =   885.7844                                  TOTAL IN =   9.324039    

                   STREAM ACCUMULATION =  0.1054978E-02                   STREAM ACCUMULATION =  0.7923881E-05
                        STREAM OUTFLOW =   885.7833                            STREAM OUTFLOW =   9.324033    
                          STREAM TO GW =   0.000000                              STREAM TO GW =   0.000000    
                CONSTANT CONCENTRATION =   0.000000                    CONSTANT CONCENTRATION =   0.000000    
                           EVAPORATION =   0.000000                               EVAPORATION =   0.000000    
                             MASS LOSS =   0.000000                                 MASS LOSS =   0.000000    
                                         -------------------                                    --------------
                             TOTAL OUT =   885.7843                                 TOTAL OUT =   9.324040    

                        NET (IN - OUT) =  0.1220703E-03                        NET (IN - OUT) = -0.1907349E-05
                 DISCREPANCY (PERCENT) =  0.1378104E-04                 DISCREPANCY (PERCENT) = -0.2045625E-04
                                              FLOW ERR (QIN-QOUT-DV) = -0.9536743E-06 [L3/T]




 >>>>>>>>>>>>>>>>>>>>>>>>>>>>>>>>>>>>>>>>>>>>>>>>>>>>>>>FOR COMPONENT NO. 01<<<<<<<<<<<<<<<<<<<<<<<<<<<<<<<<<<<<<<<<<<<<<<<<<<<<<<<


                                            -------------------------------------------
                                                      TRANSPORT STEP NO.   95
                                            -------------------------------------------

 TOTAL ELAPSED TIME SINCE BEGINNING OF SIMULATION =   17100.00    D   
 .....................................................................

                     CUMULATIVE MASS BUDGETS AT END OF TRANSPORT STEP   95, TIME STEP    1, STRESS PERIOD    1
                     -----------------------------------------------------------------------------------------

                                                             IN                           OUT
                                                      ----------------             ----------------
                               CONSTANT CONCENTRATION:    0.000000                    0.000000    
                                        CONSTANT HEAD:    213.4459                   -118.5400    
                                               STREAM:    0.000000                   -94.90868    
                               MASS STOR (FLOW MODEL):   0.2883517E-02              -0.3904289E-07
                                MASS STORAGE (SOLUTE):    0.000000                    0.000000    
                            ---------------------------------------------------------------------------
                                              [TOTAL]:    213.4488     KG            -213.4486     KG  

                                                          NET (IN - OUT):   0.1525879E-03
                                                   DISCREPANCY (PERCENT):   0.7148691E-04
     2 CALLS TO GCG PACKAGE FOR TRANSPORT TIME STEP    96 IN FLOW TIME STEP     1 STRESS PERIOD     1
      2 TOTAL ITERATIONS
  MAXIMUM CONCENTRATION CHANGES FOR EACH ITERATION:
  MAX. CHANGE LAYER,ROW,COL MAX. CHANGE LAYER,ROW,COL MAX. CHANGE LAYER,ROW,COL MAX. CHANGE LAYER,ROW,COL MAX. CHANGE LAYER,ROW,COL
 ------------------------------------------------------------------------------------------------------------------------------------
    0.000     (  1,  1,  1)   0.000     (  1,  1,  1)


                     STREAM MASS BUDGETS AT END OF TRANSPORT STEP   96, TIME STEP    1, STRESS PERIOD    1 FOR COMPONENT   1
                     -------------------------------------------------------------------------------------------------------

                                         CUMULATIVE MASS [M]                                     MASS FOR THIS TIME STEP [M]
                                         -------------------                                    --------------
                      STREAM DEPLETION =  0.4022452E-04                      STREAM DEPLETION =  0.2617380E-07
                      INFLOW TO STREAM =   799.2007                          INFLOW TO STREAM =   8.325000    
                          GW TO STREAM =   95.90772                              GW TO STREAM =  0.9990391    
                         PRECIPITATION =   0.000000                             PRECIPITATION =   0.000000    
                                RUNOFF =   0.000000                                    RUNOFF =   0.000000    
                CONSTANT CONCENTRATION =   0.000000                    CONSTANT CONCENTRATION =   0.000000    
                             MASS GAIN =   0.000000                                 MASS GAIN =   0.000000    
                                         -------------------                                    --------------
                              TOTAL IN =   895.1085                                  TOTAL IN =   9.324039    

                   STREAM ACCUMULATION =  0.1062691E-02                   STREAM ACCUMULATION =  0.7713255E-05
                        STREAM OUTFLOW =   895.1073                            STREAM OUTFLOW =   9.324033    
                          STREAM TO GW =   0.000000                              STREAM TO GW =   0.000000    
                CONSTANT CONCENTRATION =   0.000000                    CONSTANT CONCENTRATION =   0.000000    
                           EVAPORATION =   0.000000                               EVAPORATION =   0.000000    
                             MASS LOSS =   0.000000                                 MASS LOSS =   0.000000    
                                         -------------------                                    --------------
                             TOTAL OUT =   895.1083                                 TOTAL OUT =   9.324040    

                        NET (IN - OUT) =  0.1831055E-03                        NET (IN - OUT) = -0.1907349E-05
                 DISCREPANCY (PERCENT) =  0.2045623E-04                 DISCREPANCY (PERCENT) = -0.2045625E-04
                                              FLOW ERR (QIN-QOUT-DV) = -0.9536743E-06 [L3/T]




 >>>>>>>>>>>>>>>>>>>>>>>>>>>>>>>>>>>>>>>>>>>>>>>>>>>>>>>FOR COMPONENT NO. 01<<<<<<<<<<<<<<<<<<<<<<<<<<<<<<<<<<<<<<<<<<<<<<<<<<<<<<<


                                            -------------------------------------------
                                                      TRANSPORT STEP NO.   96
                                            -------------------------------------------

 TOTAL ELAPSED TIME SINCE BEGINNING OF SIMULATION =   17280.00    D   
 .....................................................................

                     CUMULATIVE MASS BUDGETS AT END OF TRANSPORT STEP   96, TIME STEP    1, STRESS PERIOD    1
                     -----------------------------------------------------------------------------------------

                                                             IN                           OUT
                                                      ----------------             ----------------
                               CONSTANT CONCENTRATION:    0.000000                    0.000000    
                                        CONSTANT HEAD:    215.6927                   -119.7878    
                                               STREAM:    0.000000                   -95.90772    
                               MASS STOR (FLOW MODEL):   0.2913870E-02              -0.3945387E-07
                                MASS STORAGE (SOLUTE):    0.000000                    0.000000    
                            ---------------------------------------------------------------------------
                                              [TOTAL]:    215.6956     KG            -215.6955     KG  

                                                          NET (IN - OUT):   0.1525879E-03
                                                   DISCREPANCY (PERCENT):   0.7074226E-04
     2 CALLS TO GCG PACKAGE FOR TRANSPORT TIME STEP    97 IN FLOW TIME STEP     1 STRESS PERIOD     1
      2 TOTAL ITERATIONS
  MAXIMUM CONCENTRATION CHANGES FOR EACH ITERATION:
  MAX. CHANGE LAYER,ROW,COL MAX. CHANGE LAYER,ROW,COL MAX. CHANGE LAYER,ROW,COL MAX. CHANGE LAYER,ROW,COL MAX. CHANGE LAYER,ROW,COL
 ------------------------------------------------------------------------------------------------------------------------------------
    0.000     (  1,  1,  1)   0.000     (  1,  1,  1)


                     STREAM MASS BUDGETS AT END OF TRANSPORT STEP   97, TIME STEP    1, STRESS PERIOD    1 FOR COMPONENT   1
                     -------------------------------------------------------------------------------------------------------

                                         CUMULATIVE MASS [M]                                     MASS FOR THIS TIME STEP [M]
                                         -------------------                                    --------------
                      STREAM DEPLETION =  0.4025038E-04                      STREAM DEPLETION =  0.2585734E-07
                      INFLOW TO STREAM =   807.5258                          INFLOW TO STREAM =   8.325000    
                          GW TO STREAM =   96.90676                              GW TO STREAM =  0.9990391    
                         PRECIPITATION =   0.000000                             PRECIPITATION =   0.000000    
                                RUNOFF =   0.000000                                    RUNOFF =   0.000000    
                CONSTANT CONCENTRATION =   0.000000                    CONSTANT CONCENTRATION =   0.000000    
                             MASS GAIN =   0.000000                                 MASS GAIN =   0.000000    
                                         -------------------                                    --------------
                              TOTAL IN =   904.4326                                  TOTAL IN =   9.324039    

                   STREAM ACCUMULATION =  0.1070191E-02                   STREAM ACCUMULATION =  0.7499593E-05
                        STREAM OUTFLOW =   904.4313                            STREAM OUTFLOW =   9.324034    
                          STREAM TO GW =   0.000000                              STREAM TO GW =   0.000000    
                CONSTANT CONCENTRATION =   0.000000                    CONSTANT CONCENTRATION =   0.000000    
                           EVAPORATION =   0.000000                               EVAPORATION =   0.000000    
                             MASS LOSS =   0.000000                                 MASS LOSS =   0.000000    
                                         -------------------                                    --------------
                             TOTAL OUT =   904.4324                                 TOTAL OUT =   9.324041    

                        NET (IN - OUT) =  0.1220703E-03                        NET (IN - OUT) = -0.2861023E-05
                 DISCREPANCY (PERCENT) =  0.1349690E-04                 DISCREPANCY (PERCENT) = -0.3068437E-04
                                              FLOW ERR (QIN-QOUT-DV) = -0.9536743E-06 [L3/T]




 >>>>>>>>>>>>>>>>>>>>>>>>>>>>>>>>>>>>>>>>>>>>>>>>>>>>>>>FOR COMPONENT NO. 01<<<<<<<<<<<<<<<<<<<<<<<<<<<<<<<<<<<<<<<<<<<<<<<<<<<<<<<


                                            -------------------------------------------
                                                      TRANSPORT STEP NO.   97
                                            -------------------------------------------

 TOTAL ELAPSED TIME SINCE BEGINNING OF SIMULATION =   17460.00    D   
 .....................................................................

                     CUMULATIVE MASS BUDGETS AT END OF TRANSPORT STEP   97, TIME STEP    1, STRESS PERIOD    1
                     -----------------------------------------------------------------------------------------

                                                             IN                           OUT
                                                      ----------------             ----------------
                               CONSTANT CONCENTRATION:    0.000000                    0.000000    
                                        CONSTANT HEAD:    217.9395                   -121.0355    
                                               STREAM:    0.000000                   -96.90676    
                               MASS STOR (FLOW MODEL):   0.2944222E-02              -0.3986485E-07
                                MASS STORAGE (SOLUTE):    0.000000                    0.000000    
                            ---------------------------------------------------------------------------
                                              [TOTAL]:    217.9424     KG            -217.9423     KG  

                                                          NET (IN - OUT):   0.1525879E-03
                                                   DISCREPANCY (PERCENT):   0.7001295E-04
     2 CALLS TO GCG PACKAGE FOR TRANSPORT TIME STEP    98 IN FLOW TIME STEP     1 STRESS PERIOD     1
      2 TOTAL ITERATIONS
  MAXIMUM CONCENTRATION CHANGES FOR EACH ITERATION:
  MAX. CHANGE LAYER,ROW,COL MAX. CHANGE LAYER,ROW,COL MAX. CHANGE LAYER,ROW,COL MAX. CHANGE LAYER,ROW,COL MAX. CHANGE LAYER,ROW,COL
 ------------------------------------------------------------------------------------------------------------------------------------
    0.000     (  1,  1,  1)   0.000     (  1,  1,  1)


                     STREAM MASS BUDGETS AT END OF TRANSPORT STEP   98, TIME STEP    1, STRESS PERIOD    1 FOR COMPONENT   1
                     -------------------------------------------------------------------------------------------------------

                                         CUMULATIVE MASS [M]                                     MASS FOR THIS TIME STEP [M]
                                         -------------------                                    --------------
                      STREAM DEPLETION =  0.4027594E-04                      STREAM DEPLETION =  0.2555641E-07
                      INFLOW TO STREAM =   815.8508                          INFLOW TO STREAM =   8.325000    
                          GW TO STREAM =   97.90580                              GW TO STREAM =  0.9990391    
                         PRECIPITATION =   0.000000                             PRECIPITATION =   0.000000    
                                RUNOFF =   0.000000                                    RUNOFF =   0.000000    
                CONSTANT CONCENTRATION =   0.000000                    CONSTANT CONCENTRATION =   0.000000    
                             MASS GAIN =   0.000000                                 MASS GAIN =   0.000000    
                                         -------------------                                    --------------
                              TOTAL IN =   913.7566                                  TOTAL IN =   9.324039    

                   STREAM ACCUMULATION =  0.1077474E-02                   STREAM ACCUMULATION =  0.7283368E-05
                        STREAM OUTFLOW =   913.7554                            STREAM OUTFLOW =   9.324034    
                          STREAM TO GW =   0.000000                              STREAM TO GW =   0.000000    
                CONSTANT CONCENTRATION =   0.000000                    CONSTANT CONCENTRATION =   0.000000    
                           EVAPORATION =   0.000000                               EVAPORATION =   0.000000    
                             MASS LOSS =   0.000000                                 MASS LOSS =   0.000000    
                                         -------------------                                    --------------
                             TOTAL OUT =   913.7565                                 TOTAL OUT =   9.324041    

                        NET (IN - OUT) =  0.1220703E-03                        NET (IN - OUT) = -0.2861023E-05
                 DISCREPANCY (PERCENT) =  0.1335917E-04                 DISCREPANCY (PERCENT) = -0.3068437E-04
                                              FLOW ERR (QIN-QOUT-DV) = -0.9536743E-06 [L3/T]




 >>>>>>>>>>>>>>>>>>>>>>>>>>>>>>>>>>>>>>>>>>>>>>>>>>>>>>>FOR COMPONENT NO. 01<<<<<<<<<<<<<<<<<<<<<<<<<<<<<<<<<<<<<<<<<<<<<<<<<<<<<<<


                                            -------------------------------------------
                                                      TRANSPORT STEP NO.   98
                                            -------------------------------------------

 TOTAL ELAPSED TIME SINCE BEGINNING OF SIMULATION =   17640.00    D   
 .....................................................................

                     CUMULATIVE MASS BUDGETS AT END OF TRANSPORT STEP   98, TIME STEP    1, STRESS PERIOD    1
                     -----------------------------------------------------------------------------------------

                                                             IN                           OUT
                                                      ----------------             ----------------
                               CONSTANT CONCENTRATION:    0.000000                    0.000000    
                                        CONSTANT HEAD:    220.1863                   -122.2833    
                                               STREAM:    0.000000                   -97.90580    
                               MASS STOR (FLOW MODEL):   0.2974575E-02              -0.4027583E-07
                                MASS STORAGE (SOLUTE):    0.000000                    0.000000    
                            ---------------------------------------------------------------------------
                                              [TOTAL]:    220.1893     KG            -220.1891     KG  

                                                          NET (IN - OUT):   0.1525879E-03
                                                   DISCREPANCY (PERCENT):   0.6929853E-04
     2 CALLS TO GCG PACKAGE FOR TRANSPORT TIME STEP    99 IN FLOW TIME STEP     1 STRESS PERIOD     1
      2 TOTAL ITERATIONS
  MAXIMUM CONCENTRATION CHANGES FOR EACH ITERATION:
  MAX. CHANGE LAYER,ROW,COL MAX. CHANGE LAYER,ROW,COL MAX. CHANGE LAYER,ROW,COL MAX. CHANGE LAYER,ROW,COL MAX. CHANGE LAYER,ROW,COL
 ------------------------------------------------------------------------------------------------------------------------------------
    0.000     (  1,  1,  1)   0.000     (  1,  1,  1)


                     STREAM MASS BUDGETS AT END OF TRANSPORT STEP   99, TIME STEP    1, STRESS PERIOD    1 FOR COMPONENT   1
                     -------------------------------------------------------------------------------------------------------

                                         CUMULATIVE MASS [M]                                     MASS FOR THIS TIME STEP [M]
                                         -------------------                                    --------------
                      STREAM DEPLETION =  0.4030105E-04                      STREAM DEPLETION =  0.2510511E-07
                      INFLOW TO STREAM =   824.1758                          INFLOW TO STREAM =   8.325000    
                          GW TO STREAM =   98.90484                              GW TO STREAM =  0.9990391    
                         PRECIPITATION =   0.000000                             PRECIPITATION =   0.000000    
                                RUNOFF =   0.000000                                    RUNOFF =   0.000000    
                CONSTANT CONCENTRATION =   0.000000                    CONSTANT CONCENTRATION =   0.000000    
                             MASS GAIN =   0.000000                                 MASS GAIN =   0.000000    
                                         -------------------                                    --------------
                              TOTAL IN =   923.0807                                  TOTAL IN =   9.324039    

                   STREAM ACCUMULATION =  0.1084539E-02                   STREAM ACCUMULATION =  0.7065076E-05
                        STREAM OUTFLOW =   923.0794                            STREAM OUTFLOW =   9.324034    
                          STREAM TO GW =   0.000000                              STREAM TO GW =   0.000000    
                CONSTANT CONCENTRATION =   0.000000                    CONSTANT CONCENTRATION =   0.000000    
                           EVAPORATION =   0.000000                               EVAPORATION =   0.000000    
                             MASS LOSS =   0.000000                                 MASS LOSS =   0.000000    
                                         -------------------                                    --------------
                             TOTAL OUT =   923.0805                                 TOTAL OUT =   9.324040    

                        NET (IN - OUT) =  0.1831055E-03                        NET (IN - OUT) = -0.1907349E-05
                 DISCREPANCY (PERCENT) =  0.1983635E-04                 DISCREPANCY (PERCENT) = -0.2045625E-04
                                              FLOW ERR (QIN-QOUT-DV) = -0.9536743E-06 [L3/T]




 >>>>>>>>>>>>>>>>>>>>>>>>>>>>>>>>>>>>>>>>>>>>>>>>>>>>>>>FOR COMPONENT NO. 01<<<<<<<<<<<<<<<<<<<<<<<<<<<<<<<<<<<<<<<<<<<<<<<<<<<<<<<


                                            -------------------------------------------
                                                      TRANSPORT STEP NO.   99
                                            -------------------------------------------

 TOTAL ELAPSED TIME SINCE BEGINNING OF SIMULATION =   17820.00    D   
 .....................................................................

                     CUMULATIVE MASS BUDGETS AT END OF TRANSPORT STEP   99, TIME STEP    1, STRESS PERIOD    1
                     -----------------------------------------------------------------------------------------

                                                             IN                           OUT
                                                      ----------------             ----------------
                               CONSTANT CONCENTRATION:    0.000000                    0.000000    
                                        CONSTANT HEAD:    222.4331                   -123.5311    
                                               STREAM:    0.000000                   -98.90484    
                               MASS STOR (FLOW MODEL):   0.3004928E-02              -0.4068680E-07
                                MASS STORAGE (SOLUTE):    0.000000                    0.000000    
                            ---------------------------------------------------------------------------
                                              [TOTAL]:    222.4361     KG            -222.4359     KG  

                                                          NET (IN - OUT):   0.1525879E-03
                                                   DISCREPANCY (PERCENT):   0.6859855E-04
     2 CALLS TO GCG PACKAGE FOR TRANSPORT TIME STEP   100 IN FLOW TIME STEP     1 STRESS PERIOD     1
      2 TOTAL ITERATIONS
  MAXIMUM CONCENTRATION CHANGES FOR EACH ITERATION:
  MAX. CHANGE LAYER,ROW,COL MAX. CHANGE LAYER,ROW,COL MAX. CHANGE LAYER,ROW,COL MAX. CHANGE LAYER,ROW,COL MAX. CHANGE LAYER,ROW,COL
 ------------------------------------------------------------------------------------------------------------------------------------
    0.000     (  1,  1,  1)   0.000     (  1,  1,  1)


                     STREAM MASS BUDGETS AT END OF TRANSPORT STEP  100, TIME STEP    1, STRESS PERIOD    1 FOR COMPONENT   1
                     -------------------------------------------------------------------------------------------------------

                                         CUMULATIVE MASS [M]                                     MASS FOR THIS TIME STEP [M]
                                         -------------------                                    --------------
                      STREAM DEPLETION =  0.4032595E-04                      STREAM DEPLETION =  0.2490217E-07
                      INFLOW TO STREAM =   832.5008                          INFLOW TO STREAM =   8.325000    
                          GW TO STREAM =   99.90388                              GW TO STREAM =  0.9990391    
                         PRECIPITATION =   0.000000                             PRECIPITATION =   0.000000    
                                RUNOFF =   0.000000                                    RUNOFF =   0.000000    
                CONSTANT CONCENTRATION =   0.000000                    CONSTANT CONCENTRATION =   0.000000    
                             MASS GAIN =   0.000000                                 MASS GAIN =   0.000000    
                                         -------------------                                    --------------
                              TOTAL IN =   932.4047                                  TOTAL IN =   9.324039    

                   STREAM ACCUMULATION =  0.1091385E-02                   STREAM ACCUMULATION =  0.6845636E-05
                        STREAM OUTFLOW =   932.4034                            STREAM OUTFLOW =   9.324034    
                          STREAM TO GW =   0.000000                              STREAM TO GW =   0.000000    
                CONSTANT CONCENTRATION =   0.000000                    CONSTANT CONCENTRATION =   0.000000    
                           EVAPORATION =   0.000000                               EVAPORATION =   0.000000    
                             MASS LOSS =   0.000000                                 MASS LOSS =   0.000000    
                                         -------------------                                    --------------
                             TOTAL OUT =   932.4045                                 TOTAL OUT =   9.324040    

                        NET (IN - OUT) =  0.1831055E-03                        NET (IN - OUT) = -0.1907349E-05
                 DISCREPANCY (PERCENT) =  0.1963798E-04                 DISCREPANCY (PERCENT) = -0.2045625E-04
                                              FLOW ERR (QIN-QOUT-DV) = -0.9536743E-06 [L3/T]




 >>>>>>>>>>>>>>>>>>>>>>>>>>>>>>>>>>>>>>>>>>>>>>>>>>>>>>>FOR COMPONENT NO. 01<<<<<<<<<<<<<<<<<<<<<<<<<<<<<<<<<<<<<<<<<<<<<<<<<<<<<<<


                                            -------------------------------------------
                                                      TRANSPORT STEP NO.  100
                                            -------------------------------------------

 TOTAL ELAPSED TIME SINCE BEGINNING OF SIMULATION =   18000.00    D   
 .....................................................................

                     CUMULATIVE MASS BUDGETS AT END OF TRANSPORT STEP  100, TIME STEP    1, STRESS PERIOD    1
                     -----------------------------------------------------------------------------------------

                                                             IN                           OUT
                                                      ----------------             ----------------
                               CONSTANT CONCENTRATION:    0.000000                    0.000000    
                                        CONSTANT HEAD:    224.6799                   -124.7789    
                                               STREAM:    0.000000                   -99.90388    
                               MASS STOR (FLOW MODEL):   0.3035281E-02              -0.4109778E-07
                                MASS STORAGE (SOLUTE):    0.000000                    0.000000    
                            ---------------------------------------------------------------------------
                                              [TOTAL]:    224.6829     KG            -224.6828     KG  

                                                          NET (IN - OUT):   0.1525879E-03
                                                   DISCREPANCY (PERCENT):   0.6791257E-04
     2 CALLS TO GCG PACKAGE FOR TRANSPORT TIME STEP   101 IN FLOW TIME STEP     1 STRESS PERIOD     1
      2 TOTAL ITERATIONS
  MAXIMUM CONCENTRATION CHANGES FOR EACH ITERATION:
  MAX. CHANGE LAYER,ROW,COL MAX. CHANGE LAYER,ROW,COL MAX. CHANGE LAYER,ROW,COL MAX. CHANGE LAYER,ROW,COL MAX. CHANGE LAYER,ROW,COL
 ------------------------------------------------------------------------------------------------------------------------------------
    0.000     (  1,  1,  1)   0.000     (  1,  1,  1)


                     STREAM MASS BUDGETS AT END OF TRANSPORT STEP  101, TIME STEP    1, STRESS PERIOD    1 FOR COMPONENT   1
                     -------------------------------------------------------------------------------------------------------

                                         CUMULATIVE MASS [M]                                     MASS FOR THIS TIME STEP [M]
                                         -------------------                                    --------------
                      STREAM DEPLETION =  0.4035034E-04                      STREAM DEPLETION =  0.2439387E-07
                      INFLOW TO STREAM =   840.8258                          INFLOW TO STREAM =   8.325000    
                          GW TO STREAM =   100.9029                              GW TO STREAM =  0.9990391    
                         PRECIPITATION =   0.000000                             PRECIPITATION =   0.000000    
                                RUNOFF =   0.000000                                    RUNOFF =   0.000000    
                CONSTANT CONCENTRATION =   0.000000                    CONSTANT CONCENTRATION =   0.000000    
                             MASS GAIN =   0.000000                                 MASS GAIN =   0.000000    
                                         -------------------                                    --------------
                              TOTAL IN =   941.7288                                  TOTAL IN =   9.324039    

                   STREAM ACCUMULATION =  0.1098010E-02                   STREAM ACCUMULATION =  0.6625146E-05
                        STREAM OUTFLOW =   941.7275                            STREAM OUTFLOW =   9.324035    
                          STREAM TO GW =   0.000000                              STREAM TO GW =   0.000000    
                CONSTANT CONCENTRATION =   0.000000                    CONSTANT CONCENTRATION =   0.000000    
                           EVAPORATION =   0.000000                               EVAPORATION =   0.000000    
                             MASS LOSS =   0.000000                                 MASS LOSS =   0.000000    
                                         -------------------                                    --------------
                             TOTAL OUT =   941.7286                                 TOTAL OUT =   9.324041    

                        NET (IN - OUT) =  0.1831055E-03                        NET (IN - OUT) = -0.2861023E-05
                 DISCREPANCY (PERCENT) =  0.1944355E-04                 DISCREPANCY (PERCENT) = -0.3068437E-04
                                              FLOW ERR (QIN-QOUT-DV) = -0.9536743E-06 [L3/T]




 >>>>>>>>>>>>>>>>>>>>>>>>>>>>>>>>>>>>>>>>>>>>>>>>>>>>>>>FOR COMPONENT NO. 01<<<<<<<<<<<<<<<<<<<<<<<<<<<<<<<<<<<<<<<<<<<<<<<<<<<<<<<


                                            -------------------------------------------
                                                      TRANSPORT STEP NO.  101
                                            -------------------------------------------

 TOTAL ELAPSED TIME SINCE BEGINNING OF SIMULATION =   18180.00    D   
 .....................................................................

                     CUMULATIVE MASS BUDGETS AT END OF TRANSPORT STEP  101, TIME STEP    1, STRESS PERIOD    1
                     -----------------------------------------------------------------------------------------

                                                             IN                           OUT
                                                      ----------------             ----------------
                               CONSTANT CONCENTRATION:    0.000000                    0.000000    
                                        CONSTANT HEAD:    226.9267                   -126.0267    
                                               STREAM:    0.000000                   -100.9029    
                               MASS STOR (FLOW MODEL):   0.3065633E-02              -0.4150876E-07
                                MASS STORAGE (SOLUTE):    0.000000                    0.000000    
                            ---------------------------------------------------------------------------
                                              [TOTAL]:    226.9297     KG            -226.9296     KG  

                                                          NET (IN - OUT):   0.1525879E-03
                                                   DISCREPANCY (PERCENT):   0.6724017E-04
     2 CALLS TO GCG PACKAGE FOR TRANSPORT TIME STEP   102 IN FLOW TIME STEP     1 STRESS PERIOD     1
      2 TOTAL ITERATIONS
  MAXIMUM CONCENTRATION CHANGES FOR EACH ITERATION:
  MAX. CHANGE LAYER,ROW,COL MAX. CHANGE LAYER,ROW,COL MAX. CHANGE LAYER,ROW,COL MAX. CHANGE LAYER,ROW,COL MAX. CHANGE LAYER,ROW,COL
 ------------------------------------------------------------------------------------------------------------------------------------
    0.000     (  1,  1,  1)   0.000     (  1,  1,  1)


                     STREAM MASS BUDGETS AT END OF TRANSPORT STEP  102, TIME STEP    1, STRESS PERIOD    1 FOR COMPONENT   1
                     -------------------------------------------------------------------------------------------------------

                                         CUMULATIVE MASS [M]                                     MASS FOR THIS TIME STEP [M]
                                         -------------------                                    --------------
                      STREAM DEPLETION =  0.4037451E-04                      STREAM DEPLETION =  0.2417608E-07
                      INFLOW TO STREAM =   849.1508                          INFLOW TO STREAM =   8.325000    
                          GW TO STREAM =   101.9020                              GW TO STREAM =  0.9990391    
                         PRECIPITATION =   0.000000                             PRECIPITATION =   0.000000    
                                RUNOFF =   0.000000                                    RUNOFF =   0.000000    
                CONSTANT CONCENTRATION =   0.000000                    CONSTANT CONCENTRATION =   0.000000    
                             MASS GAIN =   0.000000                                 MASS GAIN =   0.000000    
                                         -------------------                                    --------------
                              TOTAL IN =   951.0528                                  TOTAL IN =   9.324039    

                   STREAM ACCUMULATION =  0.1104415E-02                   STREAM ACCUMULATION =  0.6404700E-05
                        STREAM OUTFLOW =   951.0515                            STREAM OUTFLOW =   9.324035    
                          STREAM TO GW =   0.000000                              STREAM TO GW =   0.000000    
                CONSTANT CONCENTRATION =   0.000000                    CONSTANT CONCENTRATION =   0.000000    
                           EVAPORATION =   0.000000                               EVAPORATION =   0.000000    
                             MASS LOSS =   0.000000                                 MASS LOSS =   0.000000    
                                         -------------------                                    --------------
                             TOTAL OUT =   951.0526                                 TOTAL OUT =   9.324041    

                        NET (IN - OUT) =  0.1831055E-03                        NET (IN - OUT) = -0.2861023E-05
                 DISCREPANCY (PERCENT) =  0.1925292E-04                 DISCREPANCY (PERCENT) = -0.3068437E-04
                                              FLOW ERR (QIN-QOUT-DV) = -0.9536743E-06 [L3/T]




 >>>>>>>>>>>>>>>>>>>>>>>>>>>>>>>>>>>>>>>>>>>>>>>>>>>>>>>FOR COMPONENT NO. 01<<<<<<<<<<<<<<<<<<<<<<<<<<<<<<<<<<<<<<<<<<<<<<<<<<<<<<<


                                            -------------------------------------------
                                                      TRANSPORT STEP NO.  102
                                            -------------------------------------------

 TOTAL ELAPSED TIME SINCE BEGINNING OF SIMULATION =   18360.00    D   
 .....................................................................

                     CUMULATIVE MASS BUDGETS AT END OF TRANSPORT STEP  102, TIME STEP    1, STRESS PERIOD    1
                     -----------------------------------------------------------------------------------------

                                                             IN                           OUT
                                                      ----------------             ----------------
                               CONSTANT CONCENTRATION:    0.000000                    0.000000    
                                        CONSTANT HEAD:    229.1735                   -127.2745    
                                               STREAM:    0.000000                   -101.9020    
                               MASS STOR (FLOW MODEL):   0.3095986E-02              -0.4191974E-07
                                MASS STORAGE (SOLUTE):    0.000000                    0.000000    
                            ---------------------------------------------------------------------------
                                              [TOTAL]:    229.1766     KG            -229.1764     KG  

                                                          NET (IN - OUT):   0.1525879E-03
                                                   DISCREPANCY (PERCENT):   0.6658095E-04
     2 CALLS TO GCG PACKAGE FOR TRANSPORT TIME STEP   103 IN FLOW TIME STEP     1 STRESS PERIOD     1
      2 TOTAL ITERATIONS
  MAXIMUM CONCENTRATION CHANGES FOR EACH ITERATION:
  MAX. CHANGE LAYER,ROW,COL MAX. CHANGE LAYER,ROW,COL MAX. CHANGE LAYER,ROW,COL MAX. CHANGE LAYER,ROW,COL MAX. CHANGE LAYER,ROW,COL
 ------------------------------------------------------------------------------------------------------------------------------------
    0.000     (  1,  1,  1)   0.000     (  1,  1,  1)


                     STREAM MASS BUDGETS AT END OF TRANSPORT STEP  103, TIME STEP    1, STRESS PERIOD    1 FOR COMPONENT   1
                     -------------------------------------------------------------------------------------------------------

                                         CUMULATIVE MASS [M]                                     MASS FOR THIS TIME STEP [M]
                                         -------------------                                    --------------
                      STREAM DEPLETION =  0.4039828E-04                      STREAM DEPLETION =  0.2377127E-07
                      INFLOW TO STREAM =   857.4758                          INFLOW TO STREAM =   8.325000    
                          GW TO STREAM =   102.9010                              GW TO STREAM =  0.9990391    
                         PRECIPITATION =   0.000000                             PRECIPITATION =   0.000000    
                                RUNOFF =   0.000000                                    RUNOFF =   0.000000    
                CONSTANT CONCENTRATION =   0.000000                    CONSTANT CONCENTRATION =   0.000000    
                             MASS GAIN =   0.000000                                 MASS GAIN =   0.000000    
                                         -------------------                                    --------------
                              TOTAL IN =   960.3768                                  TOTAL IN =   9.324039    

                   STREAM ACCUMULATION =  0.1110599E-02                   STREAM ACCUMULATION =  0.6184442E-05
                        STREAM OUTFLOW =   960.3755                            STREAM OUTFLOW =   9.324035    
                          STREAM TO GW =   0.000000                              STREAM TO GW =   0.000000    
                CONSTANT CONCENTRATION =   0.000000                    CONSTANT CONCENTRATION =   0.000000    
                           EVAPORATION =   0.000000                               EVAPORATION =   0.000000    
                             MASS LOSS =   0.000000                                 MASS LOSS =   0.000000    
                                         -------------------                                    --------------
                             TOTAL OUT =   960.3766                                 TOTAL OUT =   9.324040    

                        NET (IN - OUT) =  0.1831055E-03                        NET (IN - OUT) = -0.1907349E-05
                 DISCREPANCY (PERCENT) =  0.1906600E-04                 DISCREPANCY (PERCENT) = -0.2045625E-04
                                              FLOW ERR (QIN-QOUT-DV) = -0.9536743E-06 [L3/T]




 >>>>>>>>>>>>>>>>>>>>>>>>>>>>>>>>>>>>>>>>>>>>>>>>>>>>>>>FOR COMPONENT NO. 01<<<<<<<<<<<<<<<<<<<<<<<<<<<<<<<<<<<<<<<<<<<<<<<<<<<<<<<


                                            -------------------------------------------
                                                      TRANSPORT STEP NO.  103
                                            -------------------------------------------

 TOTAL ELAPSED TIME SINCE BEGINNING OF SIMULATION =   18540.00    D   
 .....................................................................

                     CUMULATIVE MASS BUDGETS AT END OF TRANSPORT STEP  103, TIME STEP    1, STRESS PERIOD    1
                     -----------------------------------------------------------------------------------------

                                                             IN                           OUT
                                                      ----------------             ----------------
                               CONSTANT CONCENTRATION:    0.000000                    0.000000    
                                        CONSTANT HEAD:    231.4203                   -128.5223    
                                               STREAM:    0.000000                   -102.9010    
                               MASS STOR (FLOW MODEL):   0.3126339E-02              -0.4233071E-07
                                MASS STORAGE (SOLUTE):    0.000000                    0.000000    
                            ---------------------------------------------------------------------------
                                              [TOTAL]:    231.4234     KG            -231.4232     KG  

                                                          NET (IN - OUT):   0.1525879E-03
                                                   DISCREPANCY (PERCENT):   0.6593453E-04
     2 CALLS TO GCG PACKAGE FOR TRANSPORT TIME STEP   104 IN FLOW TIME STEP     1 STRESS PERIOD     1
      2 TOTAL ITERATIONS
  MAXIMUM CONCENTRATION CHANGES FOR EACH ITERATION:
  MAX. CHANGE LAYER,ROW,COL MAX. CHANGE LAYER,ROW,COL MAX. CHANGE LAYER,ROW,COL MAX. CHANGE LAYER,ROW,COL MAX. CHANGE LAYER,ROW,COL
 ------------------------------------------------------------------------------------------------------------------------------------
    0.000     (  1,  1,  1)   0.000     (  1,  1,  1)


                     STREAM MASS BUDGETS AT END OF TRANSPORT STEP  104, TIME STEP    1, STRESS PERIOD    1 FOR COMPONENT   1
                     -------------------------------------------------------------------------------------------------------

                                         CUMULATIVE MASS [M]                                     MASS FOR THIS TIME STEP [M]
                                         -------------------                                    --------------
                      STREAM DEPLETION =  0.4042175E-04                      STREAM DEPLETION =  0.2346057E-07
                      INFLOW TO STREAM =   865.8008                          INFLOW TO STREAM =   8.325000    
                          GW TO STREAM =   103.9000                              GW TO STREAM =  0.9990391    
                         PRECIPITATION =   0.000000                             PRECIPITATION =   0.000000    
                                RUNOFF =   0.000000                                    RUNOFF =   0.000000    
                CONSTANT CONCENTRATION =   0.000000                    CONSTANT CONCENTRATION =   0.000000    
                             MASS GAIN =   0.000000                                 MASS GAIN =   0.000000    
                                         -------------------                                    --------------
                              TOTAL IN =   969.7009                                  TOTAL IN =   9.324039    

                   STREAM ACCUMULATION =  0.1116564E-02                   STREAM ACCUMULATION =  0.5965132E-05
                        STREAM OUTFLOW =   969.6996                            STREAM OUTFLOW =   9.324035    
                          STREAM TO GW =   0.000000                              STREAM TO GW =   0.000000    
                CONSTANT CONCENTRATION =   0.000000                    CONSTANT CONCENTRATION =   0.000000    
                           EVAPORATION =   0.000000                               EVAPORATION =   0.000000    
                             MASS LOSS =   0.000000                                 MASS LOSS =   0.000000    
                                         -------------------                                    --------------
                             TOTAL OUT =   969.7007                                 TOTAL OUT =   9.324040    

                        NET (IN - OUT) =  0.2441406E-03                        NET (IN - OUT) = -0.1907349E-05
                 DISCREPANCY (PERCENT) =  0.2517690E-04                 DISCREPANCY (PERCENT) = -0.2045625E-04
                                              FLOW ERR (QIN-QOUT-DV) = -0.9536743E-06 [L3/T]




 >>>>>>>>>>>>>>>>>>>>>>>>>>>>>>>>>>>>>>>>>>>>>>>>>>>>>>>FOR COMPONENT NO. 01<<<<<<<<<<<<<<<<<<<<<<<<<<<<<<<<<<<<<<<<<<<<<<<<<<<<<<<


                                            -------------------------------------------
                                                      TRANSPORT STEP NO.  104
                                            -------------------------------------------

 TOTAL ELAPSED TIME SINCE BEGINNING OF SIMULATION =   18720.00    D   
 .....................................................................

                     CUMULATIVE MASS BUDGETS AT END OF TRANSPORT STEP  104, TIME STEP    1, STRESS PERIOD    1
                     -----------------------------------------------------------------------------------------

                                                             IN                           OUT
                                                      ----------------             ----------------
                               CONSTANT CONCENTRATION:    0.000000                    0.000000    
                                        CONSTANT HEAD:    233.6671                   -129.7701    
                                               STREAM:    0.000000                   -103.9000    
                               MASS STOR (FLOW MODEL):   0.3156692E-02              -0.4274169E-07
                                MASS STORAGE (SOLUTE):    0.000000                    0.000000    
                            ---------------------------------------------------------------------------
                                              [TOTAL]:    233.6702     KG            -233.6701     KG  

                                                          NET (IN - OUT):   0.1525879E-03
                                                   DISCREPANCY (PERCENT):   0.6530055E-04
     2 CALLS TO GCG PACKAGE FOR TRANSPORT TIME STEP   105 IN FLOW TIME STEP     1 STRESS PERIOD     1
      2 TOTAL ITERATIONS
  MAXIMUM CONCENTRATION CHANGES FOR EACH ITERATION:
  MAX. CHANGE LAYER,ROW,COL MAX. CHANGE LAYER,ROW,COL MAX. CHANGE LAYER,ROW,COL MAX. CHANGE LAYER,ROW,COL MAX. CHANGE LAYER,ROW,COL
 ------------------------------------------------------------------------------------------------------------------------------------
    0.000     (  1,  1,  1)   0.000     (  1,  1,  1)


                     STREAM MASS BUDGETS AT END OF TRANSPORT STEP  105, TIME STEP    1, STRESS PERIOD    1 FOR COMPONENT   1
                     -------------------------------------------------------------------------------------------------------

                                         CUMULATIVE MASS [M]                                     MASS FOR THIS TIME STEP [M]
                                         -------------------                                    --------------
                      STREAM DEPLETION =  0.4044495E-04                      STREAM DEPLETION =  0.2320370E-07
                      INFLOW TO STREAM =   874.1259                          INFLOW TO STREAM =   8.325000    
                          GW TO STREAM =   104.8991                              GW TO STREAM =  0.9990391    
                         PRECIPITATION =   0.000000                             PRECIPITATION =   0.000000    
                                RUNOFF =   0.000000                                    RUNOFF =   0.000000    
                CONSTANT CONCENTRATION =   0.000000                    CONSTANT CONCENTRATION =   0.000000    
                             MASS GAIN =   0.000000                                 MASS GAIN =   0.000000    
                                         -------------------                                    --------------
                              TOTAL IN =   979.0250                                  TOTAL IN =   9.324039    

                   STREAM ACCUMULATION =  0.1122312E-02                   STREAM ACCUMULATION =  0.5747294E-05
                        STREAM OUTFLOW =   979.0236                            STREAM OUTFLOW =   9.324036    
                          STREAM TO GW =   0.000000                              STREAM TO GW =   0.000000    
                CONSTANT CONCENTRATION =   0.000000                    CONSTANT CONCENTRATION =   0.000000    
                           EVAPORATION =   0.000000                               EVAPORATION =   0.000000    
                             MASS LOSS =   0.000000                                 MASS LOSS =   0.000000    
                                         -------------------                                    --------------
                             TOTAL OUT =   979.0247                                 TOTAL OUT =   9.324041    

                        NET (IN - OUT) =  0.2441406E-03                        NET (IN - OUT) = -0.2861023E-05
                 DISCREPANCY (PERCENT) =  0.2493712E-04                 DISCREPANCY (PERCENT) = -0.3068437E-04
                                              FLOW ERR (QIN-QOUT-DV) = -0.9536743E-06 [L3/T]




 >>>>>>>>>>>>>>>>>>>>>>>>>>>>>>>>>>>>>>>>>>>>>>>>>>>>>>>FOR COMPONENT NO. 01<<<<<<<<<<<<<<<<<<<<<<<<<<<<<<<<<<<<<<<<<<<<<<<<<<<<<<<


                                            -------------------------------------------
                                                      TRANSPORT STEP NO.  105
                                            -------------------------------------------

 TOTAL ELAPSED TIME SINCE BEGINNING OF SIMULATION =   18900.00    D   
 .....................................................................

                     CUMULATIVE MASS BUDGETS AT END OF TRANSPORT STEP  105, TIME STEP    1, STRESS PERIOD    1
                     -----------------------------------------------------------------------------------------

                                                             IN                           OUT
                                                      ----------------             ----------------
                               CONSTANT CONCENTRATION:    0.000000                    0.000000    
                                        CONSTANT HEAD:    235.9139                   -131.0178    
                                               STREAM:    0.000000                   -104.8991    
                               MASS STOR (FLOW MODEL):   0.3187044E-02              -0.4315267E-07
                                MASS STORAGE (SOLUTE):    0.000000                    0.000000    
                            ---------------------------------------------------------------------------
                                              [TOTAL]:    235.9171     KG            -235.9169     KG  

                                                          NET (IN - OUT):   0.1525879E-03
                                                   DISCREPANCY (PERCENT):   0.6467864E-04
     2 CALLS TO GCG PACKAGE FOR TRANSPORT TIME STEP   106 IN FLOW TIME STEP     1 STRESS PERIOD     1
      2 TOTAL ITERATIONS
  MAXIMUM CONCENTRATION CHANGES FOR EACH ITERATION:
  MAX. CHANGE LAYER,ROW,COL MAX. CHANGE LAYER,ROW,COL MAX. CHANGE LAYER,ROW,COL MAX. CHANGE LAYER,ROW,COL MAX. CHANGE LAYER,ROW,COL
 ------------------------------------------------------------------------------------------------------------------------------------
    0.000     (  1,  1,  1)   0.000     (  1,  1,  1)


                     STREAM MASS BUDGETS AT END OF TRANSPORT STEP  106, TIME STEP    1, STRESS PERIOD    1 FOR COMPONENT   1
                     -------------------------------------------------------------------------------------------------------

                                         CUMULATIVE MASS [M]                                     MASS FOR THIS TIME STEP [M]
                                         -------------------                                    --------------
                      STREAM DEPLETION =  0.4046778E-04                      STREAM DEPLETION =  0.2282808E-07
                      INFLOW TO STREAM =   882.4509                          INFLOW TO STREAM =   8.325000    
                          GW TO STREAM =   105.8981                              GW TO STREAM =  0.9990391    
                         PRECIPITATION =   0.000000                             PRECIPITATION =   0.000000    
                                RUNOFF =   0.000000                                    RUNOFF =   0.000000    
                CONSTANT CONCENTRATION =   0.000000                    CONSTANT CONCENTRATION =   0.000000    
                             MASS GAIN =   0.000000                                 MASS GAIN =   0.000000    
                                         -------------------                                    --------------
                              TOTAL IN =   988.3490                                  TOTAL IN =   9.324039    

                   STREAM ACCUMULATION =  0.1127843E-02                   STREAM ACCUMULATION =  0.5531195E-05
                        STREAM OUTFLOW =   988.3477                            STREAM OUTFLOW =   9.324036    
                          STREAM TO GW =   0.000000                              STREAM TO GW =   0.000000    
                CONSTANT CONCENTRATION =   0.000000                    CONSTANT CONCENTRATION =   0.000000    
                           EVAPORATION =   0.000000                               EVAPORATION =   0.000000    
                             MASS LOSS =   0.000000                                 MASS LOSS =   0.000000    
                                         -------------------                                    --------------
                             TOTAL OUT =   988.3488                                 TOTAL OUT =   9.324041    

                        NET (IN - OUT) =  0.2441406E-03                        NET (IN - OUT) = -0.2861023E-05
                 DISCREPANCY (PERCENT) =  0.2470187E-04                 DISCREPANCY (PERCENT) = -0.3068437E-04
                                              FLOW ERR (QIN-QOUT-DV) = -0.9536743E-06 [L3/T]




 >>>>>>>>>>>>>>>>>>>>>>>>>>>>>>>>>>>>>>>>>>>>>>>>>>>>>>>FOR COMPONENT NO. 01<<<<<<<<<<<<<<<<<<<<<<<<<<<<<<<<<<<<<<<<<<<<<<<<<<<<<<<


                                            -------------------------------------------
                                                      TRANSPORT STEP NO.  106
                                            -------------------------------------------

 TOTAL ELAPSED TIME SINCE BEGINNING OF SIMULATION =   19080.00    D   
 .....................................................................

                     CUMULATIVE MASS BUDGETS AT END OF TRANSPORT STEP  106, TIME STEP    1, STRESS PERIOD    1
                     -----------------------------------------------------------------------------------------

                                                             IN                           OUT
                                                      ----------------             ----------------
                               CONSTANT CONCENTRATION:    0.000000                    0.000000    
                                        CONSTANT HEAD:    238.1607                   -132.2656    
                                               STREAM:    0.000000                   -105.8981    
                               MASS STOR (FLOW MODEL):   0.3217397E-02              -0.4356365E-07
                                MASS STORAGE (SOLUTE):    0.000000                    0.000000    
                            ---------------------------------------------------------------------------
                                              [TOTAL]:    238.1639     KG            -238.1637     KG  

                                                          NET (IN - OUT):   0.1525879E-03
                                                   DISCREPANCY (PERCENT):   0.6406847E-04
     2 CALLS TO GCG PACKAGE FOR TRANSPORT TIME STEP   107 IN FLOW TIME STEP     1 STRESS PERIOD     1
      2 TOTAL ITERATIONS
  MAXIMUM CONCENTRATION CHANGES FOR EACH ITERATION:
  MAX. CHANGE LAYER,ROW,COL MAX. CHANGE LAYER,ROW,COL MAX. CHANGE LAYER,ROW,COL MAX. CHANGE LAYER,ROW,COL MAX. CHANGE LAYER,ROW,COL
 ------------------------------------------------------------------------------------------------------------------------------------
    0.000     (  1,  1,  1)   0.000     (  1,  1,  1)


                     STREAM MASS BUDGETS AT END OF TRANSPORT STEP  107, TIME STEP    1, STRESS PERIOD    1 FOR COMPONENT   1
                     -------------------------------------------------------------------------------------------------------

                                         CUMULATIVE MASS [M]                                     MASS FOR THIS TIME STEP [M]
                                         -------------------                                    --------------
                      STREAM DEPLETION =  0.4049036E-04                      STREAM DEPLETION =  0.2258552E-07
                      INFLOW TO STREAM =   890.7759                          INFLOW TO STREAM =   8.325000    
                          GW TO STREAM =   106.8971                              GW TO STREAM =  0.9990391    
                         PRECIPITATION =   0.000000                             PRECIPITATION =   0.000000    
                                RUNOFF =   0.000000                                    RUNOFF =   0.000000    
                CONSTANT CONCENTRATION =   0.000000                    CONSTANT CONCENTRATION =   0.000000    
                             MASS GAIN =   0.000000                                 MASS GAIN =   0.000000    
                                         -------------------                                    --------------
                              TOTAL IN =   997.6731                                  TOTAL IN =   9.324039    

                   STREAM ACCUMULATION =  0.1133160E-02                   STREAM ACCUMULATION =  0.5317601E-05
                        STREAM OUTFLOW =   997.6717                            STREAM OUTFLOW =   9.324036    
                          STREAM TO GW =   0.000000                              STREAM TO GW =   0.000000    
                CONSTANT CONCENTRATION =   0.000000                    CONSTANT CONCENTRATION =   0.000000    
                           EVAPORATION =   0.000000                               EVAPORATION =   0.000000    
                             MASS LOSS =   0.000000                                 MASS LOSS =   0.000000    
                                         -------------------                                    --------------
                             TOTAL OUT =   997.6729                                 TOTAL OUT =   9.324041    

                        NET (IN - OUT) =  0.2441406E-03                        NET (IN - OUT) = -0.2861023E-05
                 DISCREPANCY (PERCENT) =  0.2447101E-04                 DISCREPANCY (PERCENT) = -0.3068437E-04
                                              FLOW ERR (QIN-QOUT-DV) = -0.9536743E-06 [L3/T]




 >>>>>>>>>>>>>>>>>>>>>>>>>>>>>>>>>>>>>>>>>>>>>>>>>>>>>>>FOR COMPONENT NO. 01<<<<<<<<<<<<<<<<<<<<<<<<<<<<<<<<<<<<<<<<<<<<<<<<<<<<<<<


                                            -------------------------------------------
                                                      TRANSPORT STEP NO.  107
                                            -------------------------------------------

 TOTAL ELAPSED TIME SINCE BEGINNING OF SIMULATION =   19260.00    D   
 .....................................................................

                     CUMULATIVE MASS BUDGETS AT END OF TRANSPORT STEP  107, TIME STEP    1, STRESS PERIOD    1
                     -----------------------------------------------------------------------------------------

                                                             IN                           OUT
                                                      ----------------             ----------------
                               CONSTANT CONCENTRATION:    0.000000                    0.000000    
                                        CONSTANT HEAD:    240.4075                   -133.5134    
                                               STREAM:    0.000000                   -106.8971    
                               MASS STOR (FLOW MODEL):   0.3247750E-02              -0.4397463E-07
                                MASS STORAGE (SOLUTE):    0.000000                    0.000000    
                            ---------------------------------------------------------------------------
                                              [TOTAL]:    240.4107     KG            -240.4106     KG  

                                                          NET (IN - OUT):   0.1525879E-03
                                                   DISCREPANCY (PERCENT):   0.6346969E-04
     2 CALLS TO GCG PACKAGE FOR TRANSPORT TIME STEP   108 IN FLOW TIME STEP     1 STRESS PERIOD     1
      2 TOTAL ITERATIONS
  MAXIMUM CONCENTRATION CHANGES FOR EACH ITERATION:
  MAX. CHANGE LAYER,ROW,COL MAX. CHANGE LAYER,ROW,COL MAX. CHANGE LAYER,ROW,COL MAX. CHANGE LAYER,ROW,COL MAX. CHANGE LAYER,ROW,COL
 ------------------------------------------------------------------------------------------------------------------------------------
    0.000     (  1,  1,  1)   0.000     (  1,  1,  1)


                     STREAM MASS BUDGETS AT END OF TRANSPORT STEP  108, TIME STEP    1, STRESS PERIOD    1 FOR COMPONENT   1
                     -------------------------------------------------------------------------------------------------------

                                         CUMULATIVE MASS [M]                                     MASS FOR THIS TIME STEP [M]
                                         -------------------                                    --------------
                      STREAM DEPLETION =  0.4051261E-04                      STREAM DEPLETION =  0.2224505E-07
                      INFLOW TO STREAM =   899.1009                          INFLOW TO STREAM =   8.325000    
                          GW TO STREAM =   107.8962                              GW TO STREAM =  0.9990391    
                         PRECIPITATION =   0.000000                             PRECIPITATION =   0.000000    
                                RUNOFF =   0.000000                                    RUNOFF =   0.000000    
                CONSTANT CONCENTRATION =   0.000000                    CONSTANT CONCENTRATION =   0.000000    
                             MASS GAIN =   0.000000                                 MASS GAIN =   0.000000    
                                         -------------------                                    --------------
                              TOTAL IN =   1006.997                                  TOTAL IN =   9.324039    

                   STREAM ACCUMULATION =  0.1138267E-02                   STREAM ACCUMULATION =  0.5106659E-05
                        STREAM OUTFLOW =   1006.996                            STREAM OUTFLOW =   9.324036    
                          STREAM TO GW =   0.000000                              STREAM TO GW =   0.000000    
                CONSTANT CONCENTRATION =   0.000000                    CONSTANT CONCENTRATION =   0.000000    
                           EVAPORATION =   0.000000                               EVAPORATION =   0.000000    
                             MASS LOSS =   0.000000                                 MASS LOSS =   0.000000    
                                         -------------------                                    --------------
                             TOTAL OUT =   1006.997                                 TOTAL OUT =   9.324040    

                        NET (IN - OUT) =  0.2441406E-03                        NET (IN - OUT) = -0.1907349E-05
                 DISCREPANCY (PERCENT) =  0.2424442E-04                 DISCREPANCY (PERCENT) = -0.2045625E-04
                                              FLOW ERR (QIN-QOUT-DV) = -0.9536743E-06 [L3/T]




 >>>>>>>>>>>>>>>>>>>>>>>>>>>>>>>>>>>>>>>>>>>>>>>>>>>>>>>FOR COMPONENT NO. 01<<<<<<<<<<<<<<<<<<<<<<<<<<<<<<<<<<<<<<<<<<<<<<<<<<<<<<<


                                            -------------------------------------------
                                                      TRANSPORT STEP NO.  108
                                            -------------------------------------------

 TOTAL ELAPSED TIME SINCE BEGINNING OF SIMULATION =   19440.00    D   
 .....................................................................

                     CUMULATIVE MASS BUDGETS AT END OF TRANSPORT STEP  108, TIME STEP    1, STRESS PERIOD    1
                     -----------------------------------------------------------------------------------------

                                                             IN                           OUT
                                                      ----------------             ----------------
                               CONSTANT CONCENTRATION:    0.000000                    0.000000    
                                        CONSTANT HEAD:    242.6543                   -134.7612    
                                               STREAM:    0.000000                   -107.8962    
                               MASS STOR (FLOW MODEL):   0.3278102E-02              -0.4438560E-07
                                MASS STORAGE (SOLUTE):    0.000000                    0.000000    
                            ---------------------------------------------------------------------------
                                              [TOTAL]:    242.6575     KG            -242.6574     KG  

                                                          NET (IN - OUT):   0.1525879E-03
                                                   DISCREPANCY (PERCENT):   0.6288201E-04
     2 CALLS TO GCG PACKAGE FOR TRANSPORT TIME STEP   109 IN FLOW TIME STEP     1 STRESS PERIOD     1
      2 TOTAL ITERATIONS
  MAXIMUM CONCENTRATION CHANGES FOR EACH ITERATION:
  MAX. CHANGE LAYER,ROW,COL MAX. CHANGE LAYER,ROW,COL MAX. CHANGE LAYER,ROW,COL MAX. CHANGE LAYER,ROW,COL MAX. CHANGE LAYER,ROW,COL
 ------------------------------------------------------------------------------------------------------------------------------------
    0.000     (  1,  1,  1)   0.000     (  1,  1,  1)


                     STREAM MASS BUDGETS AT END OF TRANSPORT STEP  109, TIME STEP    1, STRESS PERIOD    1 FOR COMPONENT   1
                     -------------------------------------------------------------------------------------------------------

                                         CUMULATIVE MASS [M]                                     MASS FOR THIS TIME STEP [M]
                                         -------------------                                    --------------
                      STREAM DEPLETION =  0.4053455E-04                      STREAM DEPLETION =  0.2194000E-07
                      INFLOW TO STREAM =   907.4259                          INFLOW TO STREAM =   8.325000    
                          GW TO STREAM =   108.8952                              GW TO STREAM =  0.9990391    
                         PRECIPITATION =   0.000000                             PRECIPITATION =   0.000000    
                                RUNOFF =   0.000000                                    RUNOFF =   0.000000    
                CONSTANT CONCENTRATION =   0.000000                    CONSTANT CONCENTRATION =   0.000000    
                             MASS GAIN =   0.000000                                 MASS GAIN =   0.000000    
                                         -------------------                                    --------------
                              TOTAL IN =   1016.321                                  TOTAL IN =   9.324039    

                   STREAM ACCUMULATION =  0.1143166E-02                   STREAM ACCUMULATION =  0.4898963E-05
                        STREAM OUTFLOW =   1016.320                            STREAM OUTFLOW =   9.324036    
                          STREAM TO GW =   0.000000                              STREAM TO GW =   0.000000    
                CONSTANT CONCENTRATION =   0.000000                    CONSTANT CONCENTRATION =   0.000000    
                           EVAPORATION =   0.000000                               EVAPORATION =   0.000000    
                             MASS LOSS =   0.000000                                 MASS LOSS =   0.000000    
                                         -------------------                                    --------------
                             TOTAL OUT =   1016.321                                 TOTAL OUT =   9.324040    

                        NET (IN - OUT) =  0.2441406E-03                        NET (IN - OUT) = -0.1907349E-05
                 DISCREPANCY (PERCENT) =  0.2402200E-04                 DISCREPANCY (PERCENT) = -0.2045625E-04
                                              FLOW ERR (QIN-QOUT-DV) = -0.9536743E-06 [L3/T]




 >>>>>>>>>>>>>>>>>>>>>>>>>>>>>>>>>>>>>>>>>>>>>>>>>>>>>>>FOR COMPONENT NO. 01<<<<<<<<<<<<<<<<<<<<<<<<<<<<<<<<<<<<<<<<<<<<<<<<<<<<<<<


                                            -------------------------------------------
                                                      TRANSPORT STEP NO.  109
                                            -------------------------------------------

 TOTAL ELAPSED TIME SINCE BEGINNING OF SIMULATION =   19620.00    D   
 .....................................................................

                     CUMULATIVE MASS BUDGETS AT END OF TRANSPORT STEP  109, TIME STEP    1, STRESS PERIOD    1
                     -----------------------------------------------------------------------------------------

                                                             IN                           OUT
                                                      ----------------             ----------------
                               CONSTANT CONCENTRATION:    0.000000                    0.000000    
                                        CONSTANT HEAD:    244.9010                   -136.0090    
                                               STREAM:    0.000000                   -108.8952    
                               MASS STOR (FLOW MODEL):   0.3308455E-02              -0.4479658E-07
                                MASS STORAGE (SOLUTE):    0.000000                    0.000000    
                            ---------------------------------------------------------------------------
                                              [TOTAL]:    244.9044     KG            -244.9042     KG  

                                                          NET (IN - OUT):   0.1525879E-03
                                                   DISCREPANCY (PERCENT):   0.6230512E-04
     2 CALLS TO GCG PACKAGE FOR TRANSPORT TIME STEP   110 IN FLOW TIME STEP     1 STRESS PERIOD     1
      2 TOTAL ITERATIONS
  MAXIMUM CONCENTRATION CHANGES FOR EACH ITERATION:
  MAX. CHANGE LAYER,ROW,COL MAX. CHANGE LAYER,ROW,COL MAX. CHANGE LAYER,ROW,COL MAX. CHANGE LAYER,ROW,COL MAX. CHANGE LAYER,ROW,COL
 ------------------------------------------------------------------------------------------------------------------------------------
    0.000     (  1,  1,  1)   0.000     (  1,  1,  1)


                     STREAM MASS BUDGETS AT END OF TRANSPORT STEP  110, TIME STEP    1, STRESS PERIOD    1 FOR COMPONENT   1
                     -------------------------------------------------------------------------------------------------------

                                         CUMULATIVE MASS [M]                                     MASS FOR THIS TIME STEP [M]
                                         -------------------                                    --------------
                      STREAM DEPLETION =  0.4055623E-04                      STREAM DEPLETION =  0.2168062E-07
                      INFLOW TO STREAM =   915.7509                          INFLOW TO STREAM =   8.325000    
                          GW TO STREAM =   109.8943                              GW TO STREAM =  0.9990391    
                         PRECIPITATION =   0.000000                             PRECIPITATION =   0.000000    
                                RUNOFF =   0.000000                                    RUNOFF =   0.000000    
                CONSTANT CONCENTRATION =   0.000000                    CONSTANT CONCENTRATION =   0.000000    
                             MASS GAIN =   0.000000                                 MASS GAIN =   0.000000    
                                         -------------------                                    --------------
                              TOTAL IN =   1025.645                                  TOTAL IN =   9.324039    

                   STREAM ACCUMULATION =  0.1147861E-02                   STREAM ACCUMULATION =  0.4694833E-05
                        STREAM OUTFLOW =   1025.644                            STREAM OUTFLOW =   9.324037    
                          STREAM TO GW =   0.000000                              STREAM TO GW =   0.000000    
                CONSTANT CONCENTRATION =   0.000000                    CONSTANT CONCENTRATION =   0.000000    
                           EVAPORATION =   0.000000                               EVAPORATION =   0.000000    
                             MASS LOSS =   0.000000                                 MASS LOSS =   0.000000    
                                         -------------------                                    --------------
                             TOTAL OUT =   1025.645                                 TOTAL OUT =   9.324041    

                        NET (IN - OUT) =  0.3662109E-03                        NET (IN - OUT) = -0.2861023E-05
                 DISCREPANCY (PERCENT) =  0.3570543E-04                 DISCREPANCY (PERCENT) = -0.3068437E-04
                                              FLOW ERR (QIN-QOUT-DV) = -0.9536743E-06 [L3/T]




 >>>>>>>>>>>>>>>>>>>>>>>>>>>>>>>>>>>>>>>>>>>>>>>>>>>>>>>FOR COMPONENT NO. 01<<<<<<<<<<<<<<<<<<<<<<<<<<<<<<<<<<<<<<<<<<<<<<<<<<<<<<<


                                            -------------------------------------------
                                                      TRANSPORT STEP NO.  110
                                            -------------------------------------------

 TOTAL ELAPSED TIME SINCE BEGINNING OF SIMULATION =   19800.00    D   
 .....................................................................

                     CUMULATIVE MASS BUDGETS AT END OF TRANSPORT STEP  110, TIME STEP    1, STRESS PERIOD    1
                     -----------------------------------------------------------------------------------------

                                                             IN                           OUT
                                                      ----------------             ----------------
                               CONSTANT CONCENTRATION:    0.000000                    0.000000    
                                        CONSTANT HEAD:    247.1478                   -137.2568    
                                               STREAM:    0.000000                   -109.8943    
                               MASS STOR (FLOW MODEL):   0.3338808E-02              -0.4520756E-07
                                MASS STORAGE (SOLUTE):    0.000000                    0.000000    
                            ---------------------------------------------------------------------------
                                              [TOTAL]:    247.1512     KG            -247.1510     KG  

                                                          NET (IN - OUT):   0.1525879E-03
                                                   DISCREPANCY (PERCENT):   0.6173870E-04
     2 CALLS TO GCG PACKAGE FOR TRANSPORT TIME STEP   111 IN FLOW TIME STEP     1 STRESS PERIOD     1
      2 TOTAL ITERATIONS
  MAXIMUM CONCENTRATION CHANGES FOR EACH ITERATION:
  MAX. CHANGE LAYER,ROW,COL MAX. CHANGE LAYER,ROW,COL MAX. CHANGE LAYER,ROW,COL MAX. CHANGE LAYER,ROW,COL MAX. CHANGE LAYER,ROW,COL
 ------------------------------------------------------------------------------------------------------------------------------------
    0.000     (  1,  1,  1)   0.000     (  1,  1,  1)


                     STREAM MASS BUDGETS AT END OF TRANSPORT STEP  111, TIME STEP    1, STRESS PERIOD    1 FOR COMPONENT   1
                     -------------------------------------------------------------------------------------------------------

                                         CUMULATIVE MASS [M]                                     MASS FOR THIS TIME STEP [M]
                                         -------------------                                    --------------
                      STREAM DEPLETION =  0.4057759E-04                      STREAM DEPLETION =  0.2135444E-07
                      INFLOW TO STREAM =   924.0759                          INFLOW TO STREAM =   8.325000    
                          GW TO STREAM =   110.8933                              GW TO STREAM =  0.9990391    
                         PRECIPITATION =   0.000000                             PRECIPITATION =   0.000000    
                                RUNOFF =   0.000000                                    RUNOFF =   0.000000    
                CONSTANT CONCENTRATION =   0.000000                    CONSTANT CONCENTRATION =   0.000000    
                             MASS GAIN =   0.000000                                 MASS GAIN =   0.000000    
                                         -------------------                                    --------------
                              TOTAL IN =   1034.969                                  TOTAL IN =   9.324039    

                   STREAM ACCUMULATION =  0.1152355E-02                   STREAM ACCUMULATION =  0.4494551E-05
                        STREAM OUTFLOW =   1034.968                            STREAM OUTFLOW =   9.324037    
                          STREAM TO GW =   0.000000                              STREAM TO GW =   0.000000    
                CONSTANT CONCENTRATION =   0.000000                    CONSTANT CONCENTRATION =   0.000000    
                           EVAPORATION =   0.000000                               EVAPORATION =   0.000000    
                             MASS LOSS =   0.000000                                 MASS LOSS =   0.000000    
                                         -------------------                                    --------------
                             TOTAL OUT =   1034.969                                 TOTAL OUT =   9.324041    

                        NET (IN - OUT) =  0.2441406E-03                        NET (IN - OUT) = -0.2861023E-05
                 DISCREPANCY (PERCENT) =  0.2358917E-04                 DISCREPANCY (PERCENT) = -0.3068437E-04
                                              FLOW ERR (QIN-QOUT-DV) = -0.9536743E-06 [L3/T]




 >>>>>>>>>>>>>>>>>>>>>>>>>>>>>>>>>>>>>>>>>>>>>>>>>>>>>>>FOR COMPONENT NO. 01<<<<<<<<<<<<<<<<<<<<<<<<<<<<<<<<<<<<<<<<<<<<<<<<<<<<<<<


                                            -------------------------------------------
                                                      TRANSPORT STEP NO.  111
                                            -------------------------------------------

 TOTAL ELAPSED TIME SINCE BEGINNING OF SIMULATION =   19980.00    D   
 .....................................................................

                     CUMULATIVE MASS BUDGETS AT END OF TRANSPORT STEP  111, TIME STEP    1, STRESS PERIOD    1
                     -----------------------------------------------------------------------------------------

                                                             IN                           OUT
                                                      ----------------             ----------------
                               CONSTANT CONCENTRATION:    0.000000                    0.000000    
                                        CONSTANT HEAD:    249.3946                   -138.5046    
                                               STREAM:    0.000000                   -110.8933    
                               MASS STOR (FLOW MODEL):   0.3369161E-02              -0.4561854E-07
                                MASS STORAGE (SOLUTE):    0.000000                    0.000000    
                            ---------------------------------------------------------------------------
                                              [TOTAL]:    249.3980     KG            -249.3979     KG  

                                                          NET (IN - OUT):   0.1525879E-03
                                                   DISCREPANCY (PERCENT):   0.6118250E-04
     2 CALLS TO GCG PACKAGE FOR TRANSPORT TIME STEP   112 IN FLOW TIME STEP     1 STRESS PERIOD     1
      2 TOTAL ITERATIONS
  MAXIMUM CONCENTRATION CHANGES FOR EACH ITERATION:
  MAX. CHANGE LAYER,ROW,COL MAX. CHANGE LAYER,ROW,COL MAX. CHANGE LAYER,ROW,COL MAX. CHANGE LAYER,ROW,COL MAX. CHANGE LAYER,ROW,COL
 ------------------------------------------------------------------------------------------------------------------------------------
    0.000     (  1,  1,  1)   0.000     (  1,  1,  1)


                     STREAM MASS BUDGETS AT END OF TRANSPORT STEP  112, TIME STEP    1, STRESS PERIOD    1 FOR COMPONENT   1
                     -------------------------------------------------------------------------------------------------------

                                         CUMULATIVE MASS [M]                                     MASS FOR THIS TIME STEP [M]
                                         -------------------                                    --------------
                      STREAM DEPLETION =  0.4059881E-04                      STREAM DEPLETION =  0.2122027E-07
                      INFLOW TO STREAM =   932.4009                          INFLOW TO STREAM =   8.325000    
                          GW TO STREAM =   111.8923                              GW TO STREAM =  0.9990391    
                         PRECIPITATION =   0.000000                             PRECIPITATION =   0.000000    
                                RUNOFF =   0.000000                                    RUNOFF =   0.000000    
                CONSTANT CONCENTRATION =   0.000000                    CONSTANT CONCENTRATION =   0.000000    
                             MASS GAIN =   0.000000                                 MASS GAIN =   0.000000    
                                         -------------------                                    --------------
                              TOTAL IN =   1044.293                                  TOTAL IN =   9.324039    

                   STREAM ACCUMULATION =  0.1156654E-02                   STREAM ACCUMULATION =  0.4298629E-05
                        STREAM OUTFLOW =   1044.292                            STREAM OUTFLOW =   9.324037    
                          STREAM TO GW =   0.000000                              STREAM TO GW =   0.000000    
                CONSTANT CONCENTRATION =   0.000000                    CONSTANT CONCENTRATION =   0.000000    
                           EVAPORATION =   0.000000                               EVAPORATION =   0.000000    
                             MASS LOSS =   0.000000                                 MASS LOSS =   0.000000    
                                         -------------------                                    --------------
                             TOTAL OUT =   1044.293                                 TOTAL OUT =   9.324041    

                        NET (IN - OUT) =  0.2441406E-03                        NET (IN - OUT) = -0.2861023E-05
                 DISCREPANCY (PERCENT) =  0.2337855E-04                 DISCREPANCY (PERCENT) = -0.3068437E-04
                                              FLOW ERR (QIN-QOUT-DV) = -0.9536743E-06 [L3/T]




 >>>>>>>>>>>>>>>>>>>>>>>>>>>>>>>>>>>>>>>>>>>>>>>>>>>>>>>FOR COMPONENT NO. 01<<<<<<<<<<<<<<<<<<<<<<<<<<<<<<<<<<<<<<<<<<<<<<<<<<<<<<<


                                            -------------------------------------------
                                                      TRANSPORT STEP NO.  112
                                            -------------------------------------------

 TOTAL ELAPSED TIME SINCE BEGINNING OF SIMULATION =   20160.00    D   
 .....................................................................

                     CUMULATIVE MASS BUDGETS AT END OF TRANSPORT STEP  112, TIME STEP    1, STRESS PERIOD    1
                     -----------------------------------------------------------------------------------------

                                                             IN                           OUT
                                                      ----------------             ----------------
                               CONSTANT CONCENTRATION:    0.000000                    0.000000    
                                        CONSTANT HEAD:    251.6414                   -139.7523    
                                               STREAM:    0.000000                   -111.8923    
                               MASS STOR (FLOW MODEL):   0.3399513E-02              -0.4602952E-07
                                MASS STORAGE (SOLUTE):    0.000000                    0.000000    
                            ---------------------------------------------------------------------------
                                              [TOTAL]:    251.6448     KG            -251.6447     KG  

                                                          NET (IN - OUT):   0.1525879E-03
                                                   DISCREPANCY (PERCENT):   0.6063623E-04
     2 CALLS TO GCG PACKAGE FOR TRANSPORT TIME STEP   113 IN FLOW TIME STEP     1 STRESS PERIOD     1
      2 TOTAL ITERATIONS
  MAXIMUM CONCENTRATION CHANGES FOR EACH ITERATION:
  MAX. CHANGE LAYER,ROW,COL MAX. CHANGE LAYER,ROW,COL MAX. CHANGE LAYER,ROW,COL MAX. CHANGE LAYER,ROW,COL MAX. CHANGE LAYER,ROW,COL
 ------------------------------------------------------------------------------------------------------------------------------------
    0.000     (  1,  1,  1)   0.000     (  1,  1,  1)


                     STREAM MASS BUDGETS AT END OF TRANSPORT STEP  113, TIME STEP    1, STRESS PERIOD    1 FOR COMPONENT   1
                     -------------------------------------------------------------------------------------------------------

                                         CUMULATIVE MASS [M]                                     MASS FOR THIS TIME STEP [M]
                                         -------------------                                    --------------
                      STREAM DEPLETION =  0.4061963E-04                      STREAM DEPLETION =  0.2082909E-07
                      INFLOW TO STREAM =   940.7260                          INFLOW TO STREAM =   8.325000    
                          GW TO STREAM =   112.8914                              GW TO STREAM =  0.9990391    
                         PRECIPITATION =   0.000000                             PRECIPITATION =   0.000000    
                                RUNOFF =   0.000000                                    RUNOFF =   0.000000    
                CONSTANT CONCENTRATION =   0.000000                    CONSTANT CONCENTRATION =   0.000000    
                             MASS GAIN =   0.000000                                 MASS GAIN =   0.000000    
                                         -------------------                                    --------------
                              TOTAL IN =   1053.617                                  TOTAL IN =   9.324039    

                   STREAM ACCUMULATION =  0.1160761E-02                   STREAM ACCUMULATION =  0.4106942E-05
                        STREAM OUTFLOW =   1053.616                            STREAM OUTFLOW =   9.324037    
                          STREAM TO GW =   0.000000                              STREAM TO GW =   0.000000    
                CONSTANT CONCENTRATION =   0.000000                    CONSTANT CONCENTRATION =   0.000000    
                           EVAPORATION =   0.000000                               EVAPORATION =   0.000000    
                             MASS LOSS =   0.000000                                 MASS LOSS =   0.000000    
                                         -------------------                                    --------------
                             TOTAL OUT =   1053.617                                 TOTAL OUT =   9.324040    

                        NET (IN - OUT) =  0.1220703E-03                        NET (IN - OUT) = -0.1907349E-05
                 DISCREPANCY (PERCENT) =  0.1158583E-04                 DISCREPANCY (PERCENT) = -0.2045625E-04
                                              FLOW ERR (QIN-QOUT-DV) = -0.9536743E-06 [L3/T]




 >>>>>>>>>>>>>>>>>>>>>>>>>>>>>>>>>>>>>>>>>>>>>>>>>>>>>>>FOR COMPONENT NO. 01<<<<<<<<<<<<<<<<<<<<<<<<<<<<<<<<<<<<<<<<<<<<<<<<<<<<<<<


                                            -------------------------------------------
                                                      TRANSPORT STEP NO.  113
                                            -------------------------------------------

 TOTAL ELAPSED TIME SINCE BEGINNING OF SIMULATION =   20340.00    D   
 .....................................................................

                     CUMULATIVE MASS BUDGETS AT END OF TRANSPORT STEP  113, TIME STEP    1, STRESS PERIOD    1
                     -----------------------------------------------------------------------------------------

                                                             IN                           OUT
                                                      ----------------             ----------------
                               CONSTANT CONCENTRATION:    0.000000                    0.000000    
                                        CONSTANT HEAD:    253.8882                   -141.0001    
                                               STREAM:    0.000000                   -112.8914    
                               MASS STOR (FLOW MODEL):   0.3429866E-02              -0.4644049E-07
                                MASS STORAGE (SOLUTE):    0.000000                    0.000000    
                            ---------------------------------------------------------------------------
                                              [TOTAL]:    253.8917     KG            -253.8915     KG  

                                                          NET (IN - OUT):   0.1525879E-03
                                                   DISCREPANCY (PERCENT):   0.6009962E-04
     2 CALLS TO GCG PACKAGE FOR TRANSPORT TIME STEP   114 IN FLOW TIME STEP     1 STRESS PERIOD     1
      2 TOTAL ITERATIONS
  MAXIMUM CONCENTRATION CHANGES FOR EACH ITERATION:
  MAX. CHANGE LAYER,ROW,COL MAX. CHANGE LAYER,ROW,COL MAX. CHANGE LAYER,ROW,COL MAX. CHANGE LAYER,ROW,COL MAX. CHANGE LAYER,ROW,COL
 ------------------------------------------------------------------------------------------------------------------------------------
    0.000     (  1,  1,  1)   0.000     (  1,  1,  1)


                     STREAM MASS BUDGETS AT END OF TRANSPORT STEP  114, TIME STEP    1, STRESS PERIOD    1 FOR COMPONENT   1
                     -------------------------------------------------------------------------------------------------------

                                         CUMULATIVE MASS [M]                                     MASS FOR THIS TIME STEP [M]
                                         -------------------                                    --------------
                      STREAM DEPLETION =  0.4064053E-04                      STREAM DEPLETION =  0.2089262E-07
                      INFLOW TO STREAM =   949.0510                          INFLOW TO STREAM =   8.325000    
                          GW TO STREAM =   113.8904                              GW TO STREAM =  0.9990391    
                         PRECIPITATION =   0.000000                             PRECIPITATION =   0.000000    
                                RUNOFF =   0.000000                                    RUNOFF =   0.000000    
                CONSTANT CONCENTRATION =   0.000000                    CONSTANT CONCENTRATION =   0.000000    
                             MASS GAIN =   0.000000                                 MASS GAIN =   0.000000    
                                         -------------------                                    --------------
                              TOTAL IN =   1062.941                                  TOTAL IN =   9.324039    

                   STREAM ACCUMULATION =  0.1164681E-02                   STREAM ACCUMULATION =  0.3920387E-05
                        STREAM OUTFLOW =   1062.940                            STREAM OUTFLOW =   9.324037    
                          STREAM TO GW =   0.000000                              STREAM TO GW =   0.000000    
                CONSTANT CONCENTRATION =   0.000000                    CONSTANT CONCENTRATION =   0.000000    
                           EVAPORATION =   0.000000                               EVAPORATION =   0.000000    
                             MASS LOSS =   0.000000                                 MASS LOSS =   0.000000    
                                         -------------------                                    --------------
                             TOTAL OUT =   1062.941                                 TOTAL OUT =   9.324040    

                        NET (IN - OUT) =   0.000000                            NET (IN - OUT) = -0.1907349E-05
                 DISCREPANCY (PERCENT) =   0.000000                     DISCREPANCY (PERCENT) = -0.2045625E-04
                                              FLOW ERR (QIN-QOUT-DV) = -0.9536743E-06 [L3/T]




 >>>>>>>>>>>>>>>>>>>>>>>>>>>>>>>>>>>>>>>>>>>>>>>>>>>>>>>FOR COMPONENT NO. 01<<<<<<<<<<<<<<<<<<<<<<<<<<<<<<<<<<<<<<<<<<<<<<<<<<<<<<<


                                            -------------------------------------------
                                                      TRANSPORT STEP NO.  114
                                            -------------------------------------------

 TOTAL ELAPSED TIME SINCE BEGINNING OF SIMULATION =   20520.00    D   
 .....................................................................

                     CUMULATIVE MASS BUDGETS AT END OF TRANSPORT STEP  114, TIME STEP    1, STRESS PERIOD    1
                     -----------------------------------------------------------------------------------------

                                                             IN                           OUT
                                                      ----------------             ----------------
                               CONSTANT CONCENTRATION:    0.000000                    0.000000    
                                        CONSTANT HEAD:    256.1350                   -142.2479    
                                               STREAM:    0.000000                   -113.8904    
                               MASS STOR (FLOW MODEL):   0.3460219E-02              -0.4685147E-07
                                MASS STORAGE (SOLUTE):    0.000000                    0.000000    
                            ---------------------------------------------------------------------------
                                              [TOTAL]:    256.1385     KG            -256.1383     KG  

                                                          NET (IN - OUT):   0.1525879E-03
                                                   DISCREPANCY (PERCENT):   0.5957243E-04
     2 CALLS TO GCG PACKAGE FOR TRANSPORT TIME STEP   115 IN FLOW TIME STEP     1 STRESS PERIOD     1
      2 TOTAL ITERATIONS
  MAXIMUM CONCENTRATION CHANGES FOR EACH ITERATION:
  MAX. CHANGE LAYER,ROW,COL MAX. CHANGE LAYER,ROW,COL MAX. CHANGE LAYER,ROW,COL MAX. CHANGE LAYER,ROW,COL MAX. CHANGE LAYER,ROW,COL
 ------------------------------------------------------------------------------------------------------------------------------------
    0.000     (  1,  1,  1)   0.000     (  1,  1,  1)


                     STREAM MASS BUDGETS AT END OF TRANSPORT STEP  115, TIME STEP    1, STRESS PERIOD    1 FOR COMPONENT   1
                     -------------------------------------------------------------------------------------------------------

                                         CUMULATIVE MASS [M]                                     MASS FOR THIS TIME STEP [M]
                                         -------------------                                    --------------
                      STREAM DEPLETION =  0.4066092E-04                      STREAM DEPLETION =  0.2039300E-07
                      INFLOW TO STREAM =   957.3760                          INFLOW TO STREAM =   8.325000    
                          GW TO STREAM =   114.8895                              GW TO STREAM =  0.9990391    
                         PRECIPITATION =   0.000000                             PRECIPITATION =   0.000000    
                                RUNOFF =   0.000000                                    RUNOFF =   0.000000    
                CONSTANT CONCENTRATION =   0.000000                    CONSTANT CONCENTRATION =   0.000000    
                             MASS GAIN =   0.000000                                 MASS GAIN =   0.000000    
                                         -------------------                                    --------------
                              TOTAL IN =   1072.266                                  TOTAL IN =   9.324039    

                   STREAM ACCUMULATION =  0.1168420E-02                   STREAM ACCUMULATION =  0.3738203E-05
                        STREAM OUTFLOW =   1072.264                            STREAM OUTFLOW =   9.324038    
                          STREAM TO GW =   0.000000                              STREAM TO GW =   0.000000    
                CONSTANT CONCENTRATION =   0.000000                    CONSTANT CONCENTRATION =   0.000000    
                           EVAPORATION =   0.000000                               EVAPORATION =   0.000000    
                             MASS LOSS =   0.000000                                 MASS LOSS =   0.000000    
                                         -------------------                                    --------------
                             TOTAL OUT =   1072.266                                 TOTAL OUT =   9.324041    

                        NET (IN - OUT) =   0.000000                            NET (IN - OUT) = -0.2861023E-05
                 DISCREPANCY (PERCENT) =   0.000000                     DISCREPANCY (PERCENT) = -0.3068437E-04
                                              FLOW ERR (QIN-QOUT-DV) = -0.9536743E-06 [L3/T]




 >>>>>>>>>>>>>>>>>>>>>>>>>>>>>>>>>>>>>>>>>>>>>>>>>>>>>>>FOR COMPONENT NO. 01<<<<<<<<<<<<<<<<<<<<<<<<<<<<<<<<<<<<<<<<<<<<<<<<<<<<<<<


                                            -------------------------------------------
                                                      TRANSPORT STEP NO.  115
                                            -------------------------------------------

 TOTAL ELAPSED TIME SINCE BEGINNING OF SIMULATION =   20700.00    D   
 .....................................................................

                     CUMULATIVE MASS BUDGETS AT END OF TRANSPORT STEP  115, TIME STEP    1, STRESS PERIOD    1
                     -----------------------------------------------------------------------------------------

                                                             IN                           OUT
                                                      ----------------             ----------------
                               CONSTANT CONCENTRATION:    0.000000                    0.000000    
                                        CONSTANT HEAD:    258.3818                   -143.4957    
                                               STREAM:    0.000000                   -114.8895    
                               MASS STOR (FLOW MODEL):   0.3490572E-02              -0.4726245E-07
                                MASS STORAGE (SOLUTE):    0.000000                    0.000000    
                            ---------------------------------------------------------------------------
                                              [TOTAL]:    258.3853     KG            -258.3852     KG  

                                                          NET (IN - OUT):   0.1525879E-03
                                                   DISCREPANCY (PERCENT):   0.5905441E-04
     2 CALLS TO GCG PACKAGE FOR TRANSPORT TIME STEP   116 IN FLOW TIME STEP     1 STRESS PERIOD     1
      2 TOTAL ITERATIONS
  MAXIMUM CONCENTRATION CHANGES FOR EACH ITERATION:
  MAX. CHANGE LAYER,ROW,COL MAX. CHANGE LAYER,ROW,COL MAX. CHANGE LAYER,ROW,COL MAX. CHANGE LAYER,ROW,COL MAX. CHANGE LAYER,ROW,COL
 ------------------------------------------------------------------------------------------------------------------------------------
    0.000     (  1,  1,  1)   0.000     (  1,  1,  1)


                     STREAM MASS BUDGETS AT END OF TRANSPORT STEP  116, TIME STEP    1, STRESS PERIOD    1 FOR COMPONENT   1
                     -------------------------------------------------------------------------------------------------------

                                         CUMULATIVE MASS [M]                                     MASS FOR THIS TIME STEP [M]
                                         -------------------                                    --------------
                      STREAM DEPLETION =  0.4068142E-04                      STREAM DEPLETION =  0.2049982E-07
                      INFLOW TO STREAM =   965.7010                          INFLOW TO STREAM =   8.325000    
                          GW TO STREAM =   115.8885                              GW TO STREAM =  0.9990391    
                         PRECIPITATION =   0.000000                             PRECIPITATION =   0.000000    
                                RUNOFF =   0.000000                                    RUNOFF =   0.000000    
                CONSTANT CONCENTRATION =   0.000000                    CONSTANT CONCENTRATION =   0.000000    
                             MASS GAIN =   0.000000                                 MASS GAIN =   0.000000    
                                         -------------------                                    --------------
                              TOTAL IN =   1081.589                                  TOTAL IN =   9.324039    

                   STREAM ACCUMULATION =  0.1171981E-02                   STREAM ACCUMULATION =  0.3561689E-05
                        STREAM OUTFLOW =   1081.588                            STREAM OUTFLOW =   9.324038    
                          STREAM TO GW =   0.000000                              STREAM TO GW =   0.000000    
                CONSTANT CONCENTRATION =   0.000000                    CONSTANT CONCENTRATION =   0.000000    
                           EVAPORATION =   0.000000                               EVAPORATION =   0.000000    
                             MASS LOSS =   0.000000                                 MASS LOSS =   0.000000    
                                         -------------------                                    --------------
                             TOTAL OUT =   1081.590                                 TOTAL OUT =   9.324041    

                        NET (IN - OUT) = -0.1220703E-03                        NET (IN - OUT) = -0.2861023E-05
                 DISCREPANCY (PERCENT) = -0.1128620E-04                 DISCREPANCY (PERCENT) = -0.3068437E-04
                                              FLOW ERR (QIN-QOUT-DV) = -0.9536743E-06 [L3/T]




 >>>>>>>>>>>>>>>>>>>>>>>>>>>>>>>>>>>>>>>>>>>>>>>>>>>>>>>FOR COMPONENT NO. 01<<<<<<<<<<<<<<<<<<<<<<<<<<<<<<<<<<<<<<<<<<<<<<<<<<<<<<<


                                            -------------------------------------------
                                                      TRANSPORT STEP NO.  116
                                            -------------------------------------------

 TOTAL ELAPSED TIME SINCE BEGINNING OF SIMULATION =   20880.00    D   
 .....................................................................

                     CUMULATIVE MASS BUDGETS AT END OF TRANSPORT STEP  116, TIME STEP    1, STRESS PERIOD    1
                     -----------------------------------------------------------------------------------------

                                                             IN                           OUT
                                                      ----------------             ----------------
                               CONSTANT CONCENTRATION:    0.000000                    0.000000    
                                        CONSTANT HEAD:    260.6286                   -144.7435    
                                               STREAM:    0.000000                   -115.8885    
                               MASS STOR (FLOW MODEL):   0.3520924E-02              -0.4767343E-07
                                MASS STORAGE (SOLUTE):    0.000000                    0.000000    
                            ---------------------------------------------------------------------------
                                              [TOTAL]:    260.6321     KG            -260.6320     KG  

                                                          NET (IN - OUT):   0.1525879E-03
                                                   DISCREPANCY (PERCENT):   0.5854532E-04
     2 CALLS TO GCG PACKAGE FOR TRANSPORT TIME STEP   117 IN FLOW TIME STEP     1 STRESS PERIOD     1
      2 TOTAL ITERATIONS
  MAXIMUM CONCENTRATION CHANGES FOR EACH ITERATION:
  MAX. CHANGE LAYER,ROW,COL MAX. CHANGE LAYER,ROW,COL MAX. CHANGE LAYER,ROW,COL MAX. CHANGE LAYER,ROW,COL MAX. CHANGE LAYER,ROW,COL
 ------------------------------------------------------------------------------------------------------------------------------------
    0.000     (  1,  1,  1)   0.000     (  1,  1,  1)


                     STREAM MASS BUDGETS AT END OF TRANSPORT STEP  117, TIME STEP    1, STRESS PERIOD    1 FOR COMPONENT   1
                     -------------------------------------------------------------------------------------------------------

                                         CUMULATIVE MASS [M]                                     MASS FOR THIS TIME STEP [M]
                                         -------------------                                    --------------
                      STREAM DEPLETION =  0.4070147E-04                      STREAM DEPLETION =  0.2005303E-07
                      INFLOW TO STREAM =   974.0260                          INFLOW TO STREAM =   8.325000    
                          GW TO STREAM =   116.8875                              GW TO STREAM =  0.9990391    
                         PRECIPITATION =   0.000000                             PRECIPITATION =   0.000000    
                                RUNOFF =   0.000000                                    RUNOFF =   0.000000    
                CONSTANT CONCENTRATION =   0.000000                    CONSTANT CONCENTRATION =   0.000000    
                             MASS GAIN =   0.000000                                 MASS GAIN =   0.000000    
                                         -------------------                                    --------------
                              TOTAL IN =   1090.914                                  TOTAL IN =   9.324039    

                   STREAM ACCUMULATION =  0.1175371E-02                   STREAM ACCUMULATION =  0.3389873E-05
                        STREAM OUTFLOW =   1090.912                            STREAM OUTFLOW =   9.324038    
                          STREAM TO GW =   0.000000                              STREAM TO GW =   0.000000    
                CONSTANT CONCENTRATION =   0.000000                    CONSTANT CONCENTRATION =   0.000000    
                           EVAPORATION =   0.000000                               EVAPORATION =   0.000000    
                             MASS LOSS =   0.000000                                 MASS LOSS =   0.000000    
                                         -------------------                                    --------------
                             TOTAL OUT =   1090.914                                 TOTAL OUT =   9.324041    

                        NET (IN - OUT) = -0.1220703E-03                        NET (IN - OUT) = -0.2861023E-05
                 DISCREPANCY (PERCENT) = -0.1118973E-04                 DISCREPANCY (PERCENT) = -0.3068437E-04
                                              FLOW ERR (QIN-QOUT-DV) = -0.9536743E-06 [L3/T]




 >>>>>>>>>>>>>>>>>>>>>>>>>>>>>>>>>>>>>>>>>>>>>>>>>>>>>>>FOR COMPONENT NO. 01<<<<<<<<<<<<<<<<<<<<<<<<<<<<<<<<<<<<<<<<<<<<<<<<<<<<<<<


                                            -------------------------------------------
                                                      TRANSPORT STEP NO.  117
                                            -------------------------------------------

 TOTAL ELAPSED TIME SINCE BEGINNING OF SIMULATION =   21060.00    D   
 .....................................................................

                     CUMULATIVE MASS BUDGETS AT END OF TRANSPORT STEP  117, TIME STEP    1, STRESS PERIOD    1
                     -----------------------------------------------------------------------------------------

                                                             IN                           OUT
                                                      ----------------             ----------------
                               CONSTANT CONCENTRATION:    0.000000                    0.000000    
                                        CONSTANT HEAD:    262.8754                   -145.9913    
                                               STREAM:    0.000000                   -116.8875    
                               MASS STOR (FLOW MODEL):   0.3551277E-02              -0.4808441E-07
                                MASS STORAGE (SOLUTE):    0.000000                    0.000000    
                            ---------------------------------------------------------------------------
                                              [TOTAL]:    262.8790     KG            -262.8788     KG  

                                                          NET (IN - OUT):   0.1525879E-03
                                                   DISCREPANCY (PERCENT):   0.5804493E-04
     2 CALLS TO GCG PACKAGE FOR TRANSPORT TIME STEP   118 IN FLOW TIME STEP     1 STRESS PERIOD     1
      2 TOTAL ITERATIONS
  MAXIMUM CONCENTRATION CHANGES FOR EACH ITERATION:
  MAX. CHANGE LAYER,ROW,COL MAX. CHANGE LAYER,ROW,COL MAX. CHANGE LAYER,ROW,COL MAX. CHANGE LAYER,ROW,COL MAX. CHANGE LAYER,ROW,COL
 ------------------------------------------------------------------------------------------------------------------------------------
    0.000     (  1,  1,  1)   0.000     (  1,  1,  1)


                     STREAM MASS BUDGETS AT END OF TRANSPORT STEP  118, TIME STEP    1, STRESS PERIOD    1 FOR COMPONENT   1
                     -------------------------------------------------------------------------------------------------------

                                         CUMULATIVE MASS [M]                                     MASS FOR THIS TIME STEP [M]
                                         -------------------                                    --------------
                      STREAM DEPLETION =  0.4072154E-04                      STREAM DEPLETION =  0.2007156E-07
                      INFLOW TO STREAM =   982.3510                          INFLOW TO STREAM =   8.325000    
                          GW TO STREAM =   117.8866                              GW TO STREAM =  0.9990391    
                         PRECIPITATION =   0.000000                             PRECIPITATION =   0.000000    
                                RUNOFF =   0.000000                                    RUNOFF =   0.000000    
                CONSTANT CONCENTRATION =   0.000000                    CONSTANT CONCENTRATION =   0.000000    
                             MASS GAIN =   0.000000                                 MASS GAIN =   0.000000    
                                         -------------------                                    --------------
                              TOTAL IN =   1100.238                                  TOTAL IN =   9.324039    

                   STREAM ACCUMULATION =  0.1178595E-02                   STREAM ACCUMULATION =  0.3223845E-05
                        STREAM OUTFLOW =   1100.237                            STREAM OUTFLOW =   9.324038    
                          STREAM TO GW =   0.000000                              STREAM TO GW =   0.000000    
                CONSTANT CONCENTRATION =   0.000000                    CONSTANT CONCENTRATION =   0.000000    
                           EVAPORATION =   0.000000                               EVAPORATION =   0.000000    
                             MASS LOSS =   0.000000                                 MASS LOSS =   0.000000    
                                         -------------------                                    --------------
                             TOTAL OUT =   1100.238                                 TOTAL OUT =   9.324040    

                        NET (IN - OUT) = -0.1220703E-03                        NET (IN - OUT) = -0.1907349E-05
                 DISCREPANCY (PERCENT) = -0.1109490E-04                 DISCREPANCY (PERCENT) = -0.2045625E-04
                                              FLOW ERR (QIN-QOUT-DV) = -0.9536743E-06 [L3/T]




 >>>>>>>>>>>>>>>>>>>>>>>>>>>>>>>>>>>>>>>>>>>>>>>>>>>>>>>FOR COMPONENT NO. 01<<<<<<<<<<<<<<<<<<<<<<<<<<<<<<<<<<<<<<<<<<<<<<<<<<<<<<<


                                            -------------------------------------------
                                                      TRANSPORT STEP NO.  118
                                            -------------------------------------------

 TOTAL ELAPSED TIME SINCE BEGINNING OF SIMULATION =   21240.00    D   
 .....................................................................

                     CUMULATIVE MASS BUDGETS AT END OF TRANSPORT STEP  118, TIME STEP    1, STRESS PERIOD    1
                     -----------------------------------------------------------------------------------------

                                                             IN                           OUT
                                                      ----------------             ----------------
                               CONSTANT CONCENTRATION:    0.000000                    0.000000    
                                        CONSTANT HEAD:    265.1222                   -147.2391    
                                               STREAM:    0.000000                   -117.8866    
                               MASS STOR (FLOW MODEL):   0.3581630E-02              -0.4849538E-07
                                MASS STORAGE (SOLUTE):    0.000000                    0.000000    
                            ---------------------------------------------------------------------------
                                              [TOTAL]:    265.1258     KG            -265.1256     KG  

                                                          NET (IN - OUT):   0.1525879E-03
                                                   DISCREPANCY (PERCENT):   0.5755303E-04
     2 CALLS TO GCG PACKAGE FOR TRANSPORT TIME STEP   119 IN FLOW TIME STEP     1 STRESS PERIOD     1
      2 TOTAL ITERATIONS
  MAXIMUM CONCENTRATION CHANGES FOR EACH ITERATION:
  MAX. CHANGE LAYER,ROW,COL MAX. CHANGE LAYER,ROW,COL MAX. CHANGE LAYER,ROW,COL MAX. CHANGE LAYER,ROW,COL MAX. CHANGE LAYER,ROW,COL
 ------------------------------------------------------------------------------------------------------------------------------------
    0.000     (  1,  1,  1)   0.000     (  1,  1,  1)


                     STREAM MASS BUDGETS AT END OF TRANSPORT STEP  119, TIME STEP    1, STRESS PERIOD    1 FOR COMPONENT   1
                     -------------------------------------------------------------------------------------------------------

                                         CUMULATIVE MASS [M]                                     MASS FOR THIS TIME STEP [M]
                                         -------------------                                    --------------
                      STREAM DEPLETION =  0.4074121E-04                      STREAM DEPLETION =  0.1966645E-07
                      INFLOW TO STREAM =   990.6760                          INFLOW TO STREAM =   8.325000    
                          GW TO STREAM =   118.8856                              GW TO STREAM =  0.9990391    
                         PRECIPITATION =   0.000000                             PRECIPITATION =   0.000000    
                                RUNOFF =   0.000000                                    RUNOFF =   0.000000    
                CONSTANT CONCENTRATION =   0.000000                    CONSTANT CONCENTRATION =   0.000000    
                             MASS GAIN =   0.000000                                 MASS GAIN =   0.000000    
                                         -------------------                                    --------------
                              TOTAL IN =   1109.562                                  TOTAL IN =   9.324039    

                   STREAM ACCUMULATION =  0.1181658E-02                   STREAM ACCUMULATION =  0.3062848E-05
                        STREAM OUTFLOW =   1109.561                            STREAM OUTFLOW =   9.324038    
                          STREAM TO GW =   0.000000                              STREAM TO GW =   0.000000    
                CONSTANT CONCENTRATION =   0.000000                    CONSTANT CONCENTRATION =   0.000000    
                           EVAPORATION =   0.000000                               EVAPORATION =   0.000000    
                             MASS LOSS =   0.000000                                 MASS LOSS =   0.000000    
                                         -------------------                                    --------------
                             TOTAL OUT =   1109.562                                 TOTAL OUT =   9.324040    

                        NET (IN - OUT) = -0.2441406E-03                        NET (IN - OUT) = -0.1907349E-05
                 DISCREPANCY (PERCENT) = -0.2200334E-04                 DISCREPANCY (PERCENT) = -0.2045625E-04
                                              FLOW ERR (QIN-QOUT-DV) = -0.9536743E-06 [L3/T]




 >>>>>>>>>>>>>>>>>>>>>>>>>>>>>>>>>>>>>>>>>>>>>>>>>>>>>>>FOR COMPONENT NO. 01<<<<<<<<<<<<<<<<<<<<<<<<<<<<<<<<<<<<<<<<<<<<<<<<<<<<<<<


                                            -------------------------------------------
                                                      TRANSPORT STEP NO.  119
                                            -------------------------------------------

 TOTAL ELAPSED TIME SINCE BEGINNING OF SIMULATION =   21420.00    D   
 .....................................................................

                     CUMULATIVE MASS BUDGETS AT END OF TRANSPORT STEP  119, TIME STEP    1, STRESS PERIOD    1
                     -----------------------------------------------------------------------------------------

                                                             IN                           OUT
                                                      ----------------             ----------------
                               CONSTANT CONCENTRATION:    0.000000                    0.000000    
                                        CONSTANT HEAD:    267.3690                   -148.4869    
                                               STREAM:    0.000000                   -118.8856    
                               MASS STOR (FLOW MODEL):   0.3611983E-02              -0.4890636E-07
                                MASS STORAGE (SOLUTE):    0.000000                    0.000000    
                            ---------------------------------------------------------------------------
                                              [TOTAL]:    267.3726     KG            -267.3725     KG  

                                                          NET (IN - OUT):   0.1525879E-03
                                                   DISCREPANCY (PERCENT):   0.5706939E-04
     2 CALLS TO GCG PACKAGE FOR TRANSPORT TIME STEP   120 IN FLOW TIME STEP     1 STRESS PERIOD     1
      2 TOTAL ITERATIONS
  MAXIMUM CONCENTRATION CHANGES FOR EACH ITERATION:
  MAX. CHANGE LAYER,ROW,COL MAX. CHANGE LAYER,ROW,COL MAX. CHANGE LAYER,ROW,COL MAX. CHANGE LAYER,ROW,COL MAX. CHANGE LAYER,ROW,COL
 ------------------------------------------------------------------------------------------------------------------------------------
    0.000     (  1,  1,  1)   0.000     (  1,  1,  1)


                     STREAM MASS BUDGETS AT END OF TRANSPORT STEP  120, TIME STEP    1, STRESS PERIOD    1 FOR COMPONENT   1
                     -------------------------------------------------------------------------------------------------------

                                         CUMULATIVE MASS [M]                                     MASS FOR THIS TIME STEP [M]
                                         -------------------                                    --------------
                      STREAM DEPLETION =  0.4076082E-04                      STREAM DEPLETION =  0.1960349E-07
                      INFLOW TO STREAM =   999.0010                          INFLOW TO STREAM =   8.325000    
                          GW TO STREAM =   119.8847                              GW TO STREAM =  0.9990391    
                         PRECIPITATION =   0.000000                             PRECIPITATION =   0.000000    
                                RUNOFF =   0.000000                                    RUNOFF =   0.000000    
                CONSTANT CONCENTRATION =   0.000000                    CONSTANT CONCENTRATION =   0.000000    
                             MASS GAIN =   0.000000                                 MASS GAIN =   0.000000    
                                         -------------------                                    --------------
                              TOTAL IN =   1118.886                                  TOTAL IN =   9.324039    

                   STREAM ACCUMULATION =  0.1184566E-02                   STREAM ACCUMULATION =  0.2907664E-05
                        STREAM OUTFLOW =   1118.885                            STREAM OUTFLOW =   9.324038    
                          STREAM TO GW =   0.000000                              STREAM TO GW =   0.000000    
                CONSTANT CONCENTRATION =   0.000000                    CONSTANT CONCENTRATION =   0.000000    
                           EVAPORATION =   0.000000                               EVAPORATION =   0.000000    
                             MASS LOSS =   0.000000                                 MASS LOSS =   0.000000    
                                         -------------------                                    --------------
                             TOTAL OUT =   1118.886                                 TOTAL OUT =   9.324040    

                        NET (IN - OUT) = -0.2441406E-03                        NET (IN - OUT) = -0.1907349E-05
                 DISCREPANCY (PERCENT) = -0.2181998E-04                 DISCREPANCY (PERCENT) = -0.2045625E-04
                                              FLOW ERR (QIN-QOUT-DV) = -0.9536743E-06 [L3/T]




 >>>>>>>>>>>>>>>>>>>>>>>>>>>>>>>>>>>>>>>>>>>>>>>>>>>>>>>FOR COMPONENT NO. 01<<<<<<<<<<<<<<<<<<<<<<<<<<<<<<<<<<<<<<<<<<<<<<<<<<<<<<<


                                            -------------------------------------------
                                                      TRANSPORT STEP NO.  120
                                            -------------------------------------------

 TOTAL ELAPSED TIME SINCE BEGINNING OF SIMULATION =   21600.00    D   
 .....................................................................

                     CUMULATIVE MASS BUDGETS AT END OF TRANSPORT STEP  120, TIME STEP    1, STRESS PERIOD    1
                     -----------------------------------------------------------------------------------------

                                                             IN                           OUT
                                                      ----------------             ----------------
                               CONSTANT CONCENTRATION:    0.000000                    0.000000    
                                        CONSTANT HEAD:    269.6158                   -149.7346    
                                               STREAM:    0.000000                   -119.8847    
                               MASS STOR (FLOW MODEL):   0.3642335E-02              -0.4931734E-07
                                MASS STORAGE (SOLUTE):    0.000000                    0.000000    
                            ---------------------------------------------------------------------------
                                              [TOTAL]:    269.6194     KG            -269.6193     KG  

                                                          NET (IN - OUT):   0.1525879E-03
                                                   DISCREPANCY (PERCENT):   0.5659381E-04
     2 CALLS TO GCG PACKAGE FOR TRANSPORT TIME STEP   121 IN FLOW TIME STEP     1 STRESS PERIOD     1
      2 TOTAL ITERATIONS
  MAXIMUM CONCENTRATION CHANGES FOR EACH ITERATION:
  MAX. CHANGE LAYER,ROW,COL MAX. CHANGE LAYER,ROW,COL MAX. CHANGE LAYER,ROW,COL MAX. CHANGE LAYER,ROW,COL MAX. CHANGE LAYER,ROW,COL
 ------------------------------------------------------------------------------------------------------------------------------------
    0.000     (  1,  1,  1)   0.000     (  1,  1,  1)


                     STREAM MASS BUDGETS AT END OF TRANSPORT STEP  121, TIME STEP    1, STRESS PERIOD    1 FOR COMPONENT   1
                     -------------------------------------------------------------------------------------------------------

                                         CUMULATIVE MASS [M]                                     MASS FOR THIS TIME STEP [M]
                                         -------------------                                    --------------
                      STREAM DEPLETION =  0.4078013E-04                      STREAM DEPLETION =  0.1931594E-07
                      INFLOW TO STREAM =   1007.326                          INFLOW TO STREAM =   8.325000    
                          GW TO STREAM =   120.8837                              GW TO STREAM =  0.9990391    
                         PRECIPITATION =   0.000000                             PRECIPITATION =   0.000000    
                                RUNOFF =   0.000000                                    RUNOFF =   0.000000    
                CONSTANT CONCENTRATION =   0.000000                    CONSTANT CONCENTRATION =   0.000000    
                             MASS GAIN =   0.000000                                 MASS GAIN =   0.000000    
                                         -------------------                                    --------------
                              TOTAL IN =   1128.210                                  TOTAL IN =   9.324039    

                   STREAM ACCUMULATION =  0.1187323E-02                   STREAM ACCUMULATION =  0.2757804E-05
                        STREAM OUTFLOW =   1128.209                            STREAM OUTFLOW =   9.324039    
                          STREAM TO GW =   0.000000                              STREAM TO GW =   0.000000    
                CONSTANT CONCENTRATION =   0.000000                    CONSTANT CONCENTRATION =   0.000000    
                           EVAPORATION =   0.000000                               EVAPORATION =   0.000000    
                             MASS LOSS =   0.000000                                 MASS LOSS =   0.000000    
                                         -------------------                                    --------------
                             TOTAL OUT =   1128.210                                 TOTAL OUT =   9.324041    

                        NET (IN - OUT) = -0.3662109E-03                        NET (IN - OUT) = -0.2861023E-05
                 DISCREPANCY (PERCENT) = -0.3245947E-04                 DISCREPANCY (PERCENT) = -0.3068437E-04
                                              FLOW ERR (QIN-QOUT-DV) = -0.9536743E-06 [L3/T]




 >>>>>>>>>>>>>>>>>>>>>>>>>>>>>>>>>>>>>>>>>>>>>>>>>>>>>>>FOR COMPONENT NO. 01<<<<<<<<<<<<<<<<<<<<<<<<<<<<<<<<<<<<<<<<<<<<<<<<<<<<<<<


                                            -------------------------------------------
                                                      TRANSPORT STEP NO.  121
                                            -------------------------------------------

 TOTAL ELAPSED TIME SINCE BEGINNING OF SIMULATION =   21780.00    D   
 .....................................................................

                     CUMULATIVE MASS BUDGETS AT END OF TRANSPORT STEP  121, TIME STEP    1, STRESS PERIOD    1
                     -----------------------------------------------------------------------------------------

                                                             IN                           OUT
                                                      ----------------             ----------------
                               CONSTANT CONCENTRATION:    0.000000                    0.000000    
                                        CONSTANT HEAD:    271.8626                   -150.9824    
                                               STREAM:    0.000000                   -120.8837    
                               MASS STOR (FLOW MODEL):   0.3672688E-02              -0.4972832E-07
                                MASS STORAGE (SOLUTE):    0.000000                    0.000000    
                            ---------------------------------------------------------------------------
                                              [TOTAL]:    271.8663     KG            -271.8661     KG  

                                                          NET (IN - OUT):   0.1525879E-03
                                                   DISCREPANCY (PERCENT):   0.5612610E-04
     2 CALLS TO GCG PACKAGE FOR TRANSPORT TIME STEP   122 IN FLOW TIME STEP     1 STRESS PERIOD     1
      2 TOTAL ITERATIONS
  MAXIMUM CONCENTRATION CHANGES FOR EACH ITERATION:
  MAX. CHANGE LAYER,ROW,COL MAX. CHANGE LAYER,ROW,COL MAX. CHANGE LAYER,ROW,COL MAX. CHANGE LAYER,ROW,COL MAX. CHANGE LAYER,ROW,COL
 ------------------------------------------------------------------------------------------------------------------------------------
    0.000     (  1,  1,  1)   0.000     (  1,  1,  1)


                     STREAM MASS BUDGETS AT END OF TRANSPORT STEP  122, TIME STEP    1, STRESS PERIOD    1 FOR COMPONENT   1
                     -------------------------------------------------------------------------------------------------------

                                         CUMULATIVE MASS [M]                                     MASS FOR THIS TIME STEP [M]
                                         -------------------                                    --------------
                      STREAM DEPLETION =  0.4079926E-04                      STREAM DEPLETION =  0.1912381E-07
                      INFLOW TO STREAM =   1015.651                          INFLOW TO STREAM =   8.325000    
                          GW TO STREAM =   121.8827                              GW TO STREAM =  0.9990391    
                         PRECIPITATION =   0.000000                             PRECIPITATION =   0.000000    
                                RUNOFF =   0.000000                                    RUNOFF =   0.000000    
                CONSTANT CONCENTRATION =   0.000000                    CONSTANT CONCENTRATION =   0.000000    
                             MASS GAIN =   0.000000                                 MASS GAIN =   0.000000    
                                         -------------------                                    --------------
                              TOTAL IN =   1137.534                                  TOTAL IN =   9.324039    

                   STREAM ACCUMULATION =  0.1189937E-02                   STREAM ACCUMULATION =  0.2613557E-05
                        STREAM OUTFLOW =   1137.533                            STREAM OUTFLOW =   9.324039    
                          STREAM TO GW =   0.000000                              STREAM TO GW =   0.000000    
                CONSTANT CONCENTRATION =   0.000000                    CONSTANT CONCENTRATION =   0.000000    
                           EVAPORATION =   0.000000                               EVAPORATION =   0.000000    
                             MASS LOSS =   0.000000                                 MASS LOSS =   0.000000    
                                         -------------------                                    --------------
                             TOTAL OUT =   1137.534                                 TOTAL OUT =   9.324041    

                        NET (IN - OUT) = -0.3662109E-03                        NET (IN - OUT) = -0.2861023E-05
                 DISCREPANCY (PERCENT) = -0.3219341E-04                 DISCREPANCY (PERCENT) = -0.3068437E-04
                                              FLOW ERR (QIN-QOUT-DV) = -0.9536743E-06 [L3/T]




 >>>>>>>>>>>>>>>>>>>>>>>>>>>>>>>>>>>>>>>>>>>>>>>>>>>>>>>FOR COMPONENT NO. 01<<<<<<<<<<<<<<<<<<<<<<<<<<<<<<<<<<<<<<<<<<<<<<<<<<<<<<<


                                            -------------------------------------------
                                                      TRANSPORT STEP NO.  122
                                            -------------------------------------------

 TOTAL ELAPSED TIME SINCE BEGINNING OF SIMULATION =   21960.00    D   
 .....................................................................

                     CUMULATIVE MASS BUDGETS AT END OF TRANSPORT STEP  122, TIME STEP    1, STRESS PERIOD    1
                     -----------------------------------------------------------------------------------------

                                                             IN                           OUT
                                                      ----------------             ----------------
                               CONSTANT CONCENTRATION:    0.000000                    0.000000    
                                        CONSTANT HEAD:    274.1094                   -152.2302    
                                               STREAM:    0.000000                   -121.8827    
                               MASS STOR (FLOW MODEL):   0.3703041E-02              -0.5013930E-07
                                MASS STORAGE (SOLUTE):    0.000000                    0.000000    
                            ---------------------------------------------------------------------------
                                              [TOTAL]:    274.1131     KG            -274.1129     KG  

                                                          NET (IN - OUT):   0.1525879E-03
                                                   DISCREPANCY (PERCENT):   0.5566605E-04
     2 CALLS TO GCG PACKAGE FOR TRANSPORT TIME STEP   123 IN FLOW TIME STEP     1 STRESS PERIOD     1
      2 TOTAL ITERATIONS
  MAXIMUM CONCENTRATION CHANGES FOR EACH ITERATION:
  MAX. CHANGE LAYER,ROW,COL MAX. CHANGE LAYER,ROW,COL MAX. CHANGE LAYER,ROW,COL MAX. CHANGE LAYER,ROW,COL MAX. CHANGE LAYER,ROW,COL
 ------------------------------------------------------------------------------------------------------------------------------------
    0.000     (  1,  1,  1)   0.000     (  1,  1,  1)


                     STREAM MASS BUDGETS AT END OF TRANSPORT STEP  123, TIME STEP    1, STRESS PERIOD    1 FOR COMPONENT   1
                     -------------------------------------------------------------------------------------------------------

                                         CUMULATIVE MASS [M]                                     MASS FOR THIS TIME STEP [M]
                                         -------------------                                    --------------
                      STREAM DEPLETION =  0.4081827E-04                      STREAM DEPLETION =  0.1901077E-07
                      INFLOW TO STREAM =   1023.976                          INFLOW TO STREAM =   8.325000    
                          GW TO STREAM =   122.8818                              GW TO STREAM =  0.9990391    
                         PRECIPITATION =   0.000000                             PRECIPITATION =   0.000000    
                                RUNOFF =   0.000000                                    RUNOFF =   0.000000    
                CONSTANT CONCENTRATION =   0.000000                    CONSTANT CONCENTRATION =   0.000000    
                             MASS GAIN =   0.000000                                 MASS GAIN =   0.000000    
                                         -------------------                                    --------------
                              TOTAL IN =   1146.858                                  TOTAL IN =   9.324039    

                   STREAM ACCUMULATION =  0.1192412E-02                   STREAM ACCUMULATION =  0.2474938E-05
                        STREAM OUTFLOW =   1146.857                            STREAM OUTFLOW =   9.324039    
                          STREAM TO GW =   0.000000                              STREAM TO GW =   0.000000    
                CONSTANT CONCENTRATION =   0.000000                    CONSTANT CONCENTRATION =   0.000000    
                           EVAPORATION =   0.000000                               EVAPORATION =   0.000000    
                             MASS LOSS =   0.000000                                 MASS LOSS =   0.000000    
                                         -------------------                                    --------------
                             TOTAL OUT =   1146.858                                 TOTAL OUT =   9.324041    

                        NET (IN - OUT) = -0.3662109E-03                        NET (IN - OUT) = -0.2861023E-05
                 DISCREPANCY (PERCENT) = -0.3193167E-04                 DISCREPANCY (PERCENT) = -0.3068437E-04
                                              FLOW ERR (QIN-QOUT-DV) = -0.9536743E-06 [L3/T]




 >>>>>>>>>>>>>>>>>>>>>>>>>>>>>>>>>>>>>>>>>>>>>>>>>>>>>>>FOR COMPONENT NO. 01<<<<<<<<<<<<<<<<<<<<<<<<<<<<<<<<<<<<<<<<<<<<<<<<<<<<<<<


                                            -------------------------------------------
                                                      TRANSPORT STEP NO.  123
                                            -------------------------------------------

 TOTAL ELAPSED TIME SINCE BEGINNING OF SIMULATION =   22140.00    D   
 .....................................................................

                     CUMULATIVE MASS BUDGETS AT END OF TRANSPORT STEP  123, TIME STEP    1, STRESS PERIOD    1
                     -----------------------------------------------------------------------------------------

                                                             IN                           OUT
                                                      ----------------             ----------------
                               CONSTANT CONCENTRATION:    0.000000                    0.000000    
                                        CONSTANT HEAD:    276.3562                   -153.4780    
                                               STREAM:    0.000000                   -122.8818    
                               MASS STOR (FLOW MODEL):   0.3733394E-02              -0.5055027E-07
                                MASS STORAGE (SOLUTE):    0.000000                    0.000000    
                            ---------------------------------------------------------------------------
                                              [TOTAL]:    276.3599     KG            -276.3598     KG  

                                                          NET (IN - OUT):   0.1525879E-03
                                                   DISCREPANCY (PERCENT):   0.5521348E-04
     2 CALLS TO GCG PACKAGE FOR TRANSPORT TIME STEP   124 IN FLOW TIME STEP     1 STRESS PERIOD     1
      2 TOTAL ITERATIONS
  MAXIMUM CONCENTRATION CHANGES FOR EACH ITERATION:
  MAX. CHANGE LAYER,ROW,COL MAX. CHANGE LAYER,ROW,COL MAX. CHANGE LAYER,ROW,COL MAX. CHANGE LAYER,ROW,COL MAX. CHANGE LAYER,ROW,COL
 ------------------------------------------------------------------------------------------------------------------------------------
    0.000     (  1,  1,  1)   0.000     (  1,  1,  1)


                     STREAM MASS BUDGETS AT END OF TRANSPORT STEP  124, TIME STEP    1, STRESS PERIOD    1 FOR COMPONENT   1
                     -------------------------------------------------------------------------------------------------------

                                         CUMULATIVE MASS [M]                                     MASS FOR THIS TIME STEP [M]
                                         -------------------                                    --------------
                      STREAM DEPLETION =  0.4083696E-04                      STREAM DEPLETION =  0.1868513E-07
                      INFLOW TO STREAM =   1032.301                          INFLOW TO STREAM =   8.325000    
                          GW TO STREAM =   123.8808                              GW TO STREAM =  0.9990391    
                         PRECIPITATION =   0.000000                             PRECIPITATION =   0.000000    
                                RUNOFF =   0.000000                                    RUNOFF =   0.000000    
                CONSTANT CONCENTRATION =   0.000000                    CONSTANT CONCENTRATION =   0.000000    
                             MASS GAIN =   0.000000                                 MASS GAIN =   0.000000    
                                         -------------------                                    --------------
                              TOTAL IN =   1156.182                                  TOTAL IN =   9.324039    

                   STREAM ACCUMULATION =  0.1194754E-02                   STREAM ACCUMULATION =  0.2341587E-05
                        STREAM OUTFLOW =   1156.181                            STREAM OUTFLOW =   9.324039    
                          STREAM TO GW =   0.000000                              STREAM TO GW =   0.000000    
                CONSTANT CONCENTRATION =   0.000000                    CONSTANT CONCENTRATION =   0.000000    
                           EVAPORATION =   0.000000                               EVAPORATION =   0.000000    
                             MASS LOSS =   0.000000                                 MASS LOSS =   0.000000    
                                         -------------------                                    --------------
                             TOTAL OUT =   1156.182                                 TOTAL OUT =   9.324040    

                        NET (IN - OUT) = -0.4882812E-03                        NET (IN - OUT) = -0.1907349E-05
                 DISCREPANCY (PERCENT) = -0.4223221E-04                 DISCREPANCY (PERCENT) = -0.2045625E-04
                                              FLOW ERR (QIN-QOUT-DV) = -0.9536743E-06 [L3/T]




 >>>>>>>>>>>>>>>>>>>>>>>>>>>>>>>>>>>>>>>>>>>>>>>>>>>>>>>FOR COMPONENT NO. 01<<<<<<<<<<<<<<<<<<<<<<<<<<<<<<<<<<<<<<<<<<<<<<<<<<<<<<<


                                            -------------------------------------------
                                                      TRANSPORT STEP NO.  124
                                            -------------------------------------------

 TOTAL ELAPSED TIME SINCE BEGINNING OF SIMULATION =   22320.00    D   
 .....................................................................

                     CUMULATIVE MASS BUDGETS AT END OF TRANSPORT STEP  124, TIME STEP    1, STRESS PERIOD    1
                     -----------------------------------------------------------------------------------------

                                                             IN                           OUT
                                                      ----------------             ----------------
                               CONSTANT CONCENTRATION:    0.000000                    0.000000    
                                        CONSTANT HEAD:    278.6030                   -154.7258    
                                               STREAM:    0.000000                   -123.8808    
                               MASS STOR (FLOW MODEL):   0.3763746E-02              -0.5096125E-07
                                MASS STORAGE (SOLUTE):    0.000000                    0.000000    
                            ---------------------------------------------------------------------------
                                              [TOTAL]:    278.6068     KG            -278.6066     KG  

                                                          NET (IN - OUT):   0.1525879E-03
                                                   DISCREPANCY (PERCENT):   0.5476821E-04
     2 CALLS TO GCG PACKAGE FOR TRANSPORT TIME STEP   125 IN FLOW TIME STEP     1 STRESS PERIOD     1
      2 TOTAL ITERATIONS
  MAXIMUM CONCENTRATION CHANGES FOR EACH ITERATION:
  MAX. CHANGE LAYER,ROW,COL MAX. CHANGE LAYER,ROW,COL MAX. CHANGE LAYER,ROW,COL MAX. CHANGE LAYER,ROW,COL MAX. CHANGE LAYER,ROW,COL
 ------------------------------------------------------------------------------------------------------------------------------------
    0.000     (  1,  1,  1)   0.000     (  1,  1,  1)


                     STREAM MASS BUDGETS AT END OF TRANSPORT STEP  125, TIME STEP    1, STRESS PERIOD    1 FOR COMPONENT   1
                     -------------------------------------------------------------------------------------------------------

                                         CUMULATIVE MASS [M]                                     MASS FOR THIS TIME STEP [M]
                                         -------------------                                    --------------
                      STREAM DEPLETION =  0.4085557E-04                      STREAM DEPLETION =  0.1861331E-07
                      INFLOW TO STREAM =   1040.626                          INFLOW TO STREAM =   8.325000    
                          GW TO STREAM =   124.8798                              GW TO STREAM =  0.9990391    
                         PRECIPITATION =   0.000000                             PRECIPITATION =   0.000000    
                                RUNOFF =   0.000000                                    RUNOFF =   0.000000    
                CONSTANT CONCENTRATION =   0.000000                    CONSTANT CONCENTRATION =   0.000000    
                             MASS GAIN =   0.000000                                 MASS GAIN =   0.000000    
                                         -------------------                                    --------------
                              TOTAL IN =   1165.506                                  TOTAL IN =   9.324039    

                   STREAM ACCUMULATION =  0.1196968E-02                   STREAM ACCUMULATION =  0.2213955E-05
                        STREAM OUTFLOW =   1165.505                            STREAM OUTFLOW =   9.324039    
                          STREAM TO GW =   0.000000                              STREAM TO GW =   0.000000    
                CONSTANT CONCENTRATION =   0.000000                    CONSTANT CONCENTRATION =   0.000000    
                           EVAPORATION =   0.000000                               EVAPORATION =   0.000000    
                             MASS LOSS =   0.000000                                 MASS LOSS =   0.000000    
                                         -------------------                                    --------------
                             TOTAL OUT =   1165.506                                 TOTAL OUT =   9.324040    

                        NET (IN - OUT) = -0.6103516E-03                        NET (IN - OUT) = -0.1907349E-05
                 DISCREPANCY (PERCENT) = -0.5236794E-04                 DISCREPANCY (PERCENT) = -0.2045625E-04
                                              FLOW ERR (QIN-QOUT-DV) = -0.9536743E-06 [L3/T]




 >>>>>>>>>>>>>>>>>>>>>>>>>>>>>>>>>>>>>>>>>>>>>>>>>>>>>>>FOR COMPONENT NO. 01<<<<<<<<<<<<<<<<<<<<<<<<<<<<<<<<<<<<<<<<<<<<<<<<<<<<<<<


                                            -------------------------------------------
                                                      TRANSPORT STEP NO.  125
                                            -------------------------------------------

 TOTAL ELAPSED TIME SINCE BEGINNING OF SIMULATION =   22500.00    D   
 .....................................................................

                     CUMULATIVE MASS BUDGETS AT END OF TRANSPORT STEP  125, TIME STEP    1, STRESS PERIOD    1
                     -----------------------------------------------------------------------------------------

                                                             IN                           OUT
                                                      ----------------             ----------------
                               CONSTANT CONCENTRATION:    0.000000                    0.000000    
                                        CONSTANT HEAD:    280.8498                   -155.9736    
                                               STREAM:    0.000000                   -124.8798    
                               MASS STOR (FLOW MODEL):   0.3794099E-02              -0.5137223E-07
                                MASS STORAGE (SOLUTE):    0.000000                    0.000000    
                            ---------------------------------------------------------------------------
                                              [TOTAL]:    280.8536     KG            -280.8534     KG  

                                                          NET (IN - OUT):   0.1525879E-03
                                                   DISCREPANCY (PERCENT):   0.5433006E-04
     2 CALLS TO GCG PACKAGE FOR TRANSPORT TIME STEP   126 IN FLOW TIME STEP     1 STRESS PERIOD     1
      2 TOTAL ITERATIONS
  MAXIMUM CONCENTRATION CHANGES FOR EACH ITERATION:
  MAX. CHANGE LAYER,ROW,COL MAX. CHANGE LAYER,ROW,COL MAX. CHANGE LAYER,ROW,COL MAX. CHANGE LAYER,ROW,COL MAX. CHANGE LAYER,ROW,COL
 ------------------------------------------------------------------------------------------------------------------------------------
    0.000     (  1,  1,  1)   0.000     (  1,  1,  1)


                     STREAM MASS BUDGETS AT END OF TRANSPORT STEP  126, TIME STEP    1, STRESS PERIOD    1 FOR COMPONENT   1
                     -------------------------------------------------------------------------------------------------------

                                         CUMULATIVE MASS [M]                                     MASS FOR THIS TIME STEP [M]
                                         -------------------                                    --------------
                      STREAM DEPLETION =  0.4087382E-04                      STREAM DEPLETION =  0.1825489E-07
                      INFLOW TO STREAM =   1048.951                          INFLOW TO STREAM =   8.325000    
                          GW TO STREAM =   125.8789                              GW TO STREAM =  0.9990391    
                         PRECIPITATION =   0.000000                             PRECIPITATION =   0.000000    
                                RUNOFF =   0.000000                                    RUNOFF =   0.000000    
                CONSTANT CONCENTRATION =   0.000000                    CONSTANT CONCENTRATION =   0.000000    
                             MASS GAIN =   0.000000                                 MASS GAIN =   0.000000    
                                         -------------------                                    --------------
                              TOTAL IN =   1174.830                                  TOTAL IN =   9.324039    

                   STREAM ACCUMULATION =  0.1199059E-02                   STREAM ACCUMULATION =  0.2091402E-05
                        STREAM OUTFLOW =   1174.829                            STREAM OUTFLOW =   9.324039    
                          STREAM TO GW =   0.000000                              STREAM TO GW =   0.000000    
                CONSTANT CONCENTRATION =   0.000000                    CONSTANT CONCENTRATION =   0.000000    
                           EVAPORATION =   0.000000                               EVAPORATION =   0.000000    
                             MASS LOSS =   0.000000                                 MASS LOSS =   0.000000    
                                         -------------------                                    --------------
                             TOTAL OUT =   1174.831                                 TOTAL OUT =   9.324040    

                        NET (IN - OUT) = -0.7324219E-03                        NET (IN - OUT) = -0.1907349E-05
                 DISCREPANCY (PERCENT) = -0.6234278E-04                 DISCREPANCY (PERCENT) = -0.2045625E-04
                                              FLOW ERR (QIN-QOUT-DV) = -0.9536743E-06 [L3/T]




 >>>>>>>>>>>>>>>>>>>>>>>>>>>>>>>>>>>>>>>>>>>>>>>>>>>>>>>FOR COMPONENT NO. 01<<<<<<<<<<<<<<<<<<<<<<<<<<<<<<<<<<<<<<<<<<<<<<<<<<<<<<<


                                            -------------------------------------------
                                                      TRANSPORT STEP NO.  126
                                            -------------------------------------------

 TOTAL ELAPSED TIME SINCE BEGINNING OF SIMULATION =   22680.00    D   
 .....................................................................

                     CUMULATIVE MASS BUDGETS AT END OF TRANSPORT STEP  126, TIME STEP    1, STRESS PERIOD    1
                     -----------------------------------------------------------------------------------------

                                                             IN                           OUT
                                                      ----------------             ----------------
                               CONSTANT CONCENTRATION:    0.000000                    0.000000    
                                        CONSTANT HEAD:    283.0966                   -157.2214    
                                               STREAM:    0.000000                   -125.8789    
                               MASS STOR (FLOW MODEL):   0.3824452E-02              -0.5178321E-07
                                MASS STORAGE (SOLUTE):    0.000000                    0.000000    
                            ---------------------------------------------------------------------------
                                              [TOTAL]:    283.1004     KG            -283.1003     KG  

                                                          NET (IN - OUT):   0.1525879E-03
                                                   DISCREPANCY (PERCENT):   0.5389887E-04
     2 CALLS TO GCG PACKAGE FOR TRANSPORT TIME STEP   127 IN FLOW TIME STEP     1 STRESS PERIOD     1
      2 TOTAL ITERATIONS
  MAXIMUM CONCENTRATION CHANGES FOR EACH ITERATION:
  MAX. CHANGE LAYER,ROW,COL MAX. CHANGE LAYER,ROW,COL MAX. CHANGE LAYER,ROW,COL MAX. CHANGE LAYER,ROW,COL MAX. CHANGE LAYER,ROW,COL
 ------------------------------------------------------------------------------------------------------------------------------------
    0.000     (  1,  1,  1)   0.000     (  1,  1,  1)


                     STREAM MASS BUDGETS AT END OF TRANSPORT STEP  127, TIME STEP    1, STRESS PERIOD    1 FOR COMPONENT   1
                     -------------------------------------------------------------------------------------------------------

                                         CUMULATIVE MASS [M]                                     MASS FOR THIS TIME STEP [M]
                                         -------------------                                    --------------
                      STREAM DEPLETION =  0.4089199E-04                      STREAM DEPLETION =  0.1816347E-07
                      INFLOW TO STREAM =   1057.276                          INFLOW TO STREAM =   8.325000    
                          GW TO STREAM =   126.8779                              GW TO STREAM =  0.9990391    
                         PRECIPITATION =   0.000000                             PRECIPITATION =   0.000000    
                                RUNOFF =   0.000000                                    RUNOFF =   0.000000    
                CONSTANT CONCENTRATION =   0.000000                    CONSTANT CONCENTRATION =   0.000000    
                             MASS GAIN =   0.000000                                 MASS GAIN =   0.000000    
                                         -------------------                                    --------------
                              TOTAL IN =   1184.154                                  TOTAL IN =   9.324039    

                   STREAM ACCUMULATION =  0.1201033E-02                   STREAM ACCUMULATION =  0.1974438E-05
                        STREAM OUTFLOW =   1184.153                            STREAM OUTFLOW =   9.324039    
                          STREAM TO GW =   0.000000                              STREAM TO GW =   0.000000    
                CONSTANT CONCENTRATION =   0.000000                    CONSTANT CONCENTRATION =   0.000000    
                           EVAPORATION =   0.000000                               EVAPORATION =   0.000000    
                             MASS LOSS =   0.000000                                 MASS LOSS =   0.000000    
                                         -------------------                                    --------------
                             TOTAL OUT =   1184.155                                 TOTAL OUT =   9.324040    

                        NET (IN - OUT) = -0.8544922E-03                        NET (IN - OUT) = -0.1907349E-05
                 DISCREPANCY (PERCENT) = -0.7216055E-04                 DISCREPANCY (PERCENT) = -0.2045625E-04
                                              FLOW ERR (QIN-QOUT-DV) = -0.9536743E-06 [L3/T]




 >>>>>>>>>>>>>>>>>>>>>>>>>>>>>>>>>>>>>>>>>>>>>>>>>>>>>>>FOR COMPONENT NO. 01<<<<<<<<<<<<<<<<<<<<<<<<<<<<<<<<<<<<<<<<<<<<<<<<<<<<<<<


                                            -------------------------------------------
                                                      TRANSPORT STEP NO.  127
                                            -------------------------------------------

 TOTAL ELAPSED TIME SINCE BEGINNING OF SIMULATION =   22860.00    D   
 .....................................................................

                     CUMULATIVE MASS BUDGETS AT END OF TRANSPORT STEP  127, TIME STEP    1, STRESS PERIOD    1
                     -----------------------------------------------------------------------------------------

                                                             IN                           OUT
                                                      ----------------             ----------------
                               CONSTANT CONCENTRATION:    0.000000                    0.000000    
                                        CONSTANT HEAD:    285.3434                   -158.4692    
                                               STREAM:    0.000000                   -126.8779    
                               MASS STOR (FLOW MODEL):   0.3854804E-02              -0.5219418E-07
                                MASS STORAGE (SOLUTE):    0.000000                    0.000000    
                            ---------------------------------------------------------------------------
                                              [TOTAL]:    285.3472     KG            -285.3471     KG  

                                                          NET (IN - OUT):   0.1525879E-03
                                                   DISCREPANCY (PERCENT):   0.5347447E-04
     2 CALLS TO GCG PACKAGE FOR TRANSPORT TIME STEP   128 IN FLOW TIME STEP     1 STRESS PERIOD     1
      2 TOTAL ITERATIONS
  MAXIMUM CONCENTRATION CHANGES FOR EACH ITERATION:
  MAX. CHANGE LAYER,ROW,COL MAX. CHANGE LAYER,ROW,COL MAX. CHANGE LAYER,ROW,COL MAX. CHANGE LAYER,ROW,COL MAX. CHANGE LAYER,ROW,COL
 ------------------------------------------------------------------------------------------------------------------------------------
    0.000     (  1,  1,  1)   0.000     (  1,  1,  1)


                     STREAM MASS BUDGETS AT END OF TRANSPORT STEP  128, TIME STEP    1, STRESS PERIOD    1 FOR COMPONENT   1
                     -------------------------------------------------------------------------------------------------------

                                         CUMULATIVE MASS [M]                                     MASS FOR THIS TIME STEP [M]
                                         -------------------                                    --------------
                      STREAM DEPLETION =  0.4090979E-04                      STREAM DEPLETION =  0.1780568E-07
                      INFLOW TO STREAM =   1065.601                          INFLOW TO STREAM =   8.325000    
                          GW TO STREAM =   127.8770                              GW TO STREAM =  0.9990391    
                         PRECIPITATION =   0.000000                             PRECIPITATION =   0.000000    
                                RUNOFF =   0.000000                                    RUNOFF =   0.000000    
                CONSTANT CONCENTRATION =   0.000000                    CONSTANT CONCENTRATION =   0.000000    
                             MASS GAIN =   0.000000                                 MASS GAIN =   0.000000    
                                         -------------------                                    --------------
                              TOTAL IN =   1193.478                                  TOTAL IN =   9.324039    

                   STREAM ACCUMULATION =  0.1202896E-02                   STREAM ACCUMULATION =  0.1862399E-05
                        STREAM OUTFLOW =   1193.478                            STREAM OUTFLOW =   9.324039    
                          STREAM TO GW =   0.000000                              STREAM TO GW =   0.000000    
                CONSTANT CONCENTRATION =   0.000000                    CONSTANT CONCENTRATION =   0.000000    
                           EVAPORATION =   0.000000                               EVAPORATION =   0.000000    
                             MASS LOSS =   0.000000                                 MASS LOSS =   0.000000    
                                         -------------------                                    --------------
                             TOTAL OUT =   1193.479                                 TOTAL OUT =   9.324041    

                        NET (IN - OUT) = -0.9765625E-03                        NET (IN - OUT) = -0.2861023E-05
                 DISCREPANCY (PERCENT) = -0.8182491E-04                 DISCREPANCY (PERCENT) = -0.3068437E-04
                                              FLOW ERR (QIN-QOUT-DV) = -0.9536743E-06 [L3/T]




 >>>>>>>>>>>>>>>>>>>>>>>>>>>>>>>>>>>>>>>>>>>>>>>>>>>>>>>FOR COMPONENT NO. 01<<<<<<<<<<<<<<<<<<<<<<<<<<<<<<<<<<<<<<<<<<<<<<<<<<<<<<<


                                            -------------------------------------------
                                                      TRANSPORT STEP NO.  128
                                            -------------------------------------------

 TOTAL ELAPSED TIME SINCE BEGINNING OF SIMULATION =   23040.00    D   
 .....................................................................

                     CUMULATIVE MASS BUDGETS AT END OF TRANSPORT STEP  128, TIME STEP    1, STRESS PERIOD    1
                     -----------------------------------------------------------------------------------------

                                                             IN                           OUT
                                                      ----------------             ----------------
                               CONSTANT CONCENTRATION:    0.000000                    0.000000    
                                        CONSTANT HEAD:    287.5902                   -159.7169    
                                               STREAM:    0.000000                   -127.8770    
                               MASS STOR (FLOW MODEL):   0.3885157E-02              -0.5260516E-07
                                MASS STORAGE (SOLUTE):    0.000000                    0.000000    
                            ---------------------------------------------------------------------------
                                              [TOTAL]:    287.5941     KG            -287.5939     KG  

                                                          NET (IN - OUT):   0.1525879E-03
                                                   DISCREPANCY (PERCENT):   0.5305670E-04
     2 CALLS TO GCG PACKAGE FOR TRANSPORT TIME STEP   129 IN FLOW TIME STEP     1 STRESS PERIOD     1
      2 TOTAL ITERATIONS
  MAXIMUM CONCENTRATION CHANGES FOR EACH ITERATION:
  MAX. CHANGE LAYER,ROW,COL MAX. CHANGE LAYER,ROW,COL MAX. CHANGE LAYER,ROW,COL MAX. CHANGE LAYER,ROW,COL MAX. CHANGE LAYER,ROW,COL
 ------------------------------------------------------------------------------------------------------------------------------------
    0.000     (  1,  1,  1)   0.000     (  1,  1,  1)


                     STREAM MASS BUDGETS AT END OF TRANSPORT STEP  129, TIME STEP    1, STRESS PERIOD    1 FOR COMPONENT   1
                     -------------------------------------------------------------------------------------------------------

                                         CUMULATIVE MASS [M]                                     MASS FOR THIS TIME STEP [M]
                                         -------------------                                    --------------
                      STREAM DEPLETION =  0.4092750E-04                      STREAM DEPLETION =  0.1771103E-07
                      INFLOW TO STREAM =   1073.926                          INFLOW TO STREAM =   8.325000    
                          GW TO STREAM =   128.8760                              GW TO STREAM =  0.9990391    
                         PRECIPITATION =   0.000000                             PRECIPITATION =   0.000000    
                                RUNOFF =   0.000000                                    RUNOFF =   0.000000    
                CONSTANT CONCENTRATION =   0.000000                    CONSTANT CONCENTRATION =   0.000000    
                             MASS GAIN =   0.000000                                 MASS GAIN =   0.000000    
                                         -------------------                                    --------------
                              TOTAL IN =   1202.802                                  TOTAL IN =   9.324039    

                   STREAM ACCUMULATION =  0.1204652E-02                   STREAM ACCUMULATION =  0.1755741E-05
                        STREAM OUTFLOW =   1202.802                            STREAM OUTFLOW =   9.324039    
                          STREAM TO GW =   0.000000                              STREAM TO GW =   0.000000    
                CONSTANT CONCENTRATION =   0.000000                    CONSTANT CONCENTRATION =   0.000000    
                           EVAPORATION =   0.000000                               EVAPORATION =   0.000000    
                             MASS LOSS =   0.000000                                 MASS LOSS =   0.000000    
                                         -------------------                                    --------------
                             TOTAL OUT =   1202.803                                 TOTAL OUT =   9.324041    

                        NET (IN - OUT) = -0.9765625E-03                        NET (IN - OUT) = -0.2861023E-05
                 DISCREPANCY (PERCENT) = -0.8119061E-04                 DISCREPANCY (PERCENT) = -0.3068437E-04
                                              FLOW ERR (QIN-QOUT-DV) = -0.9536743E-06 [L3/T]




 >>>>>>>>>>>>>>>>>>>>>>>>>>>>>>>>>>>>>>>>>>>>>>>>>>>>>>>FOR COMPONENT NO. 01<<<<<<<<<<<<<<<<<<<<<<<<<<<<<<<<<<<<<<<<<<<<<<<<<<<<<<<


                                            -------------------------------------------
                                                      TRANSPORT STEP NO.  129
                                            -------------------------------------------

 TOTAL ELAPSED TIME SINCE BEGINNING OF SIMULATION =   23220.00    D   
 .....................................................................

                     CUMULATIVE MASS BUDGETS AT END OF TRANSPORT STEP  129, TIME STEP    1, STRESS PERIOD    1
                     -----------------------------------------------------------------------------------------

                                                             IN                           OUT
                                                      ----------------             ----------------
                               CONSTANT CONCENTRATION:    0.000000                    0.000000    
                                        CONSTANT HEAD:    289.8370                   -160.9647    
                                               STREAM:    0.000000                   -128.8760    
                               MASS STOR (FLOW MODEL):   0.3915510E-02              -0.5301614E-07
                                MASS STORAGE (SOLUTE):    0.000000                    0.000000    
                            ---------------------------------------------------------------------------
                                              [TOTAL]:    289.8409     KG            -289.8408     KG  

                                                          NET (IN - OUT):   0.1220703E-03
                                                   DISCREPANCY (PERCENT):   0.4211633E-04
     2 CALLS TO GCG PACKAGE FOR TRANSPORT TIME STEP   130 IN FLOW TIME STEP     1 STRESS PERIOD     1
      2 TOTAL ITERATIONS
  MAXIMUM CONCENTRATION CHANGES FOR EACH ITERATION:
  MAX. CHANGE LAYER,ROW,COL MAX. CHANGE LAYER,ROW,COL MAX. CHANGE LAYER,ROW,COL MAX. CHANGE LAYER,ROW,COL MAX. CHANGE LAYER,ROW,COL
 ------------------------------------------------------------------------------------------------------------------------------------
    0.000     (  1,  1,  1)   0.000     (  1,  1,  1)


                     STREAM MASS BUDGETS AT END OF TRANSPORT STEP  130, TIME STEP    1, STRESS PERIOD    1 FOR COMPONENT   1
                     -------------------------------------------------------------------------------------------------------

                                         CUMULATIVE MASS [M]                                     MASS FOR THIS TIME STEP [M]
                                         -------------------                                    --------------
                      STREAM DEPLETION =  0.4094489E-04                      STREAM DEPLETION =  0.1738538E-07
                      INFLOW TO STREAM =   1082.251                          INFLOW TO STREAM =   8.325000    
                          GW TO STREAM =   129.8750                              GW TO STREAM =  0.9990391    
                         PRECIPITATION =   0.000000                             PRECIPITATION =   0.000000    
                                RUNOFF =   0.000000                                    RUNOFF =   0.000000    
                CONSTANT CONCENTRATION =   0.000000                    CONSTANT CONCENTRATION =   0.000000    
                             MASS GAIN =   0.000000                                 MASS GAIN =   0.000000    
                                         -------------------                                    --------------
                              TOTAL IN =   1212.126                                  TOTAL IN =   9.324039    

                   STREAM ACCUMULATION =  0.1206305E-02                   STREAM ACCUMULATION =  0.1653823E-05
                        STREAM OUTFLOW =   1212.126                            STREAM OUTFLOW =   9.324039    
                          STREAM TO GW =   0.000000                              STREAM TO GW =   0.000000    
                CONSTANT CONCENTRATION =   0.000000                    CONSTANT CONCENTRATION =   0.000000    
                           EVAPORATION =   0.000000                               EVAPORATION =   0.000000    
                             MASS LOSS =   0.000000                                 MASS LOSS =   0.000000    
                                         -------------------                                    --------------
                             TOTAL OUT =   1212.127                                 TOTAL OUT =   9.324041    

                        NET (IN - OUT) = -0.1098633E-02                        NET (IN - OUT) = -0.2861023E-05
                 DISCREPANCY (PERCENT) = -0.9063682E-04                 DISCREPANCY (PERCENT) = -0.3068437E-04
                                              FLOW ERR (QIN-QOUT-DV) = -0.9536743E-06 [L3/T]




 >>>>>>>>>>>>>>>>>>>>>>>>>>>>>>>>>>>>>>>>>>>>>>>>>>>>>>>FOR COMPONENT NO. 01<<<<<<<<<<<<<<<<<<<<<<<<<<<<<<<<<<<<<<<<<<<<<<<<<<<<<<<


                                            -------------------------------------------
                                                      TRANSPORT STEP NO.  130
                                            -------------------------------------------

 TOTAL ELAPSED TIME SINCE BEGINNING OF SIMULATION =   23400.00    D   
 .....................................................................

                     CUMULATIVE MASS BUDGETS AT END OF TRANSPORT STEP  130, TIME STEP    1, STRESS PERIOD    1
                     -----------------------------------------------------------------------------------------

                                                             IN                           OUT
                                                      ----------------             ----------------
                               CONSTANT CONCENTRATION:    0.000000                    0.000000    
                                        CONSTANT HEAD:    292.0838                   -162.2125    
                                               STREAM:    0.000000                   -129.8750    
                               MASS STOR (FLOW MODEL):   0.3945863E-02              -0.5342712E-07
                                MASS STORAGE (SOLUTE):    0.000000                    0.000000    
                            ---------------------------------------------------------------------------
                                              [TOTAL]:    292.0877     KG            -292.0876     KG  

                                                          NET (IN - OUT):   0.1220703E-03
                                                   DISCREPANCY (PERCENT):   0.4179236E-04
     2 CALLS TO GCG PACKAGE FOR TRANSPORT TIME STEP   131 IN FLOW TIME STEP     1 STRESS PERIOD     1
      2 TOTAL ITERATIONS
  MAXIMUM CONCENTRATION CHANGES FOR EACH ITERATION:
  MAX. CHANGE LAYER,ROW,COL MAX. CHANGE LAYER,ROW,COL MAX. CHANGE LAYER,ROW,COL MAX. CHANGE LAYER,ROW,COL MAX. CHANGE LAYER,ROW,COL
 ------------------------------------------------------------------------------------------------------------------------------------
    0.000     (  1,  1,  1)   0.000     (  1,  1,  1)


                     STREAM MASS BUDGETS AT END OF TRANSPORT STEP  131, TIME STEP    1, STRESS PERIOD    1 FOR COMPONENT   1
                     -------------------------------------------------------------------------------------------------------

                                         CUMULATIVE MASS [M]                                     MASS FOR THIS TIME STEP [M]
                                         -------------------                                    --------------
                      STREAM DEPLETION =  0.4096211E-04                      STREAM DEPLETION =  0.1722188E-07
                      INFLOW TO STREAM =   1090.576                          INFLOW TO STREAM =   8.325000    
                          GW TO STREAM =   130.8741                              GW TO STREAM =  0.9990391    
                         PRECIPITATION =   0.000000                             PRECIPITATION =   0.000000    
                                RUNOFF =   0.000000                                    RUNOFF =   0.000000    
                CONSTANT CONCENTRATION =   0.000000                    CONSTANT CONCENTRATION =   0.000000    
                             MASS GAIN =   0.000000                                 MASS GAIN =   0.000000    
                                         -------------------                                    --------------
                              TOTAL IN =   1221.450                                  TOTAL IN =   9.324039    

                   STREAM ACCUMULATION =  0.1207862E-02                   STREAM ACCUMULATION =  0.1556943E-05
                        STREAM OUTFLOW =   1221.450                            STREAM OUTFLOW =   9.324039    
                          STREAM TO GW =   0.000000                              STREAM TO GW =   0.000000    
                CONSTANT CONCENTRATION =   0.000000                    CONSTANT CONCENTRATION =   0.000000    
                           EVAPORATION =   0.000000                               EVAPORATION =   0.000000    
                             MASS LOSS =   0.000000                                 MASS LOSS =   0.000000    
                                         -------------------                                    --------------
                             TOTAL OUT =   1221.451                                 TOTAL OUT =   9.324041    

                        NET (IN - OUT) = -0.1220703E-02                        NET (IN - OUT) = -0.2861023E-05
                 DISCREPANCY (PERCENT) = -0.9993881E-04                 DISCREPANCY (PERCENT) = -0.3068437E-04
                                              FLOW ERR (QIN-QOUT-DV) = -0.9536743E-06 [L3/T]




 >>>>>>>>>>>>>>>>>>>>>>>>>>>>>>>>>>>>>>>>>>>>>>>>>>>>>>>FOR COMPONENT NO. 01<<<<<<<<<<<<<<<<<<<<<<<<<<<<<<<<<<<<<<<<<<<<<<<<<<<<<<<


                                            -------------------------------------------
                                                      TRANSPORT STEP NO.  131
                                            -------------------------------------------

 TOTAL ELAPSED TIME SINCE BEGINNING OF SIMULATION =   23580.00    D   
 .....................................................................

                     CUMULATIVE MASS BUDGETS AT END OF TRANSPORT STEP  131, TIME STEP    1, STRESS PERIOD    1
                     -----------------------------------------------------------------------------------------

                                                             IN                           OUT
                                                      ----------------             ----------------
                               CONSTANT CONCENTRATION:    0.000000                    0.000000    
                                        CONSTANT HEAD:    294.3306                   -163.4603    
                                               STREAM:    0.000000                   -130.8741    
                               MASS STOR (FLOW MODEL):   0.3976216E-02              -0.5383810E-07
                                MASS STORAGE (SOLUTE):    0.000000                    0.000000    
                            ---------------------------------------------------------------------------
                                              [TOTAL]:    294.3345     KG            -294.3344     KG  

                                                          NET (IN - OUT):   0.1220703E-03
                                                   DISCREPANCY (PERCENT):   0.4147333E-04
     2 CALLS TO GCG PACKAGE FOR TRANSPORT TIME STEP   132 IN FLOW TIME STEP     1 STRESS PERIOD     1
      2 TOTAL ITERATIONS
  MAXIMUM CONCENTRATION CHANGES FOR EACH ITERATION:
  MAX. CHANGE LAYER,ROW,COL MAX. CHANGE LAYER,ROW,COL MAX. CHANGE LAYER,ROW,COL MAX. CHANGE LAYER,ROW,COL MAX. CHANGE LAYER,ROW,COL
 ------------------------------------------------------------------------------------------------------------------------------------
    0.000     (  1,  1,  1)   0.000     (  1,  1,  1)


                     STREAM MASS BUDGETS AT END OF TRANSPORT STEP  132, TIME STEP    1, STRESS PERIOD    1 FOR COMPONENT   1
                     -------------------------------------------------------------------------------------------------------

                                         CUMULATIVE MASS [M]                                     MASS FOR THIS TIME STEP [M]
                                         -------------------                                    --------------
                      STREAM DEPLETION =  0.4097903E-04                      STREAM DEPLETION =  0.1692335E-07
                      INFLOW TO STREAM =   1098.901                          INFLOW TO STREAM =   8.325000    
                          GW TO STREAM =   131.8731                              GW TO STREAM =  0.9990391    
                         PRECIPITATION =   0.000000                             PRECIPITATION =   0.000000    
                                RUNOFF =   0.000000                                    RUNOFF =   0.000000    
                CONSTANT CONCENTRATION =   0.000000                    CONSTANT CONCENTRATION =   0.000000    
                             MASS GAIN =   0.000000                                 MASS GAIN =   0.000000    
                                         -------------------                                    --------------
                              TOTAL IN =   1230.774                                  TOTAL IN =   9.324039    

                   STREAM ACCUMULATION =  0.1209327E-02                   STREAM ACCUMULATION =  0.1464641E-05
                        STREAM OUTFLOW =   1230.774                            STREAM OUTFLOW =   9.324039    
                          STREAM TO GW =   0.000000                              STREAM TO GW =   0.000000    
                CONSTANT CONCENTRATION =   0.000000                    CONSTANT CONCENTRATION =   0.000000    
                           EVAPORATION =   0.000000                               EVAPORATION =   0.000000    
                             MASS LOSS =   0.000000                                 MASS LOSS =   0.000000    
                                         -------------------                                    --------------
                             TOTAL OUT =   1230.775                                 TOTAL OUT =   9.324041    

                        NET (IN - OUT) = -0.1342773E-02                        NET (IN - OUT) = -0.2861023E-05
                 DISCREPANCY (PERCENT) = -0.1090999E-03                 DISCREPANCY (PERCENT) = -0.3068437E-04
                                              FLOW ERR (QIN-QOUT-DV) = -0.9536743E-06 [L3/T]




 >>>>>>>>>>>>>>>>>>>>>>>>>>>>>>>>>>>>>>>>>>>>>>>>>>>>>>>FOR COMPONENT NO. 01<<<<<<<<<<<<<<<<<<<<<<<<<<<<<<<<<<<<<<<<<<<<<<<<<<<<<<<


                                            -------------------------------------------
                                                      TRANSPORT STEP NO.  132
                                            -------------------------------------------

 TOTAL ELAPSED TIME SINCE BEGINNING OF SIMULATION =   23760.00    D   
 .....................................................................

                     CUMULATIVE MASS BUDGETS AT END OF TRANSPORT STEP  132, TIME STEP    1, STRESS PERIOD    1
                     -----------------------------------------------------------------------------------------

                                                             IN                           OUT
                                                      ----------------             ----------------
                               CONSTANT CONCENTRATION:    0.000000                    0.000000    
                                        CONSTANT HEAD:    296.5774                   -164.7081    
                                               STREAM:    0.000000                   -131.8731    
                               MASS STOR (FLOW MODEL):   0.4006568E-02              -0.5424907E-07
                                MASS STORAGE (SOLUTE):    0.000000                    0.000000    
                            ---------------------------------------------------------------------------
                                              [TOTAL]:    296.5814     KG            -296.5812     KG  

                                                          NET (IN - OUT):   0.1220703E-03
                                                   DISCREPANCY (PERCENT):   0.4115914E-04
     2 CALLS TO GCG PACKAGE FOR TRANSPORT TIME STEP   133 IN FLOW TIME STEP     1 STRESS PERIOD     1
      2 TOTAL ITERATIONS
  MAXIMUM CONCENTRATION CHANGES FOR EACH ITERATION:
  MAX. CHANGE LAYER,ROW,COL MAX. CHANGE LAYER,ROW,COL MAX. CHANGE LAYER,ROW,COL MAX. CHANGE LAYER,ROW,COL MAX. CHANGE LAYER,ROW,COL
 ------------------------------------------------------------------------------------------------------------------------------------
    0.000     (  1,  1,  1)   0.000     (  1,  1,  1)


                     STREAM MASS BUDGETS AT END OF TRANSPORT STEP  133, TIME STEP    1, STRESS PERIOD    1 FOR COMPONENT   1
                     -------------------------------------------------------------------------------------------------------

                                         CUMULATIVE MASS [M]                                     MASS FOR THIS TIME STEP [M]
                                         -------------------                                    --------------
                      STREAM DEPLETION =  0.4099575E-04                      STREAM DEPLETION =  0.1671389E-07
                      INFLOW TO STREAM =   1107.226                          INFLOW TO STREAM =   8.325000    
                          GW TO STREAM =   132.8722                              GW TO STREAM =  0.9990391    
                         PRECIPITATION =   0.000000                             PRECIPITATION =   0.000000    
                                RUNOFF =   0.000000                                    RUNOFF =   0.000000    
                CONSTANT CONCENTRATION =   0.000000                    CONSTANT CONCENTRATION =   0.000000    
                             MASS GAIN =   0.000000                                 MASS GAIN =   0.000000    
                                         -------------------                                    --------------
                              TOTAL IN =   1240.098                                  TOTAL IN =   9.324039    

                   STREAM ACCUMULATION =  0.1210704E-02                   STREAM ACCUMULATION =  0.1377031E-05
                        STREAM OUTFLOW =   1240.098                            STREAM OUTFLOW =   9.324039    
                          STREAM TO GW =   0.000000                              STREAM TO GW =   0.000000    
                CONSTANT CONCENTRATION =   0.000000                    CONSTANT CONCENTRATION =   0.000000    
                           EVAPORATION =   0.000000                               EVAPORATION =   0.000000    
                             MASS LOSS =   0.000000                                 MASS LOSS =   0.000000    
                                         -------------------                                    --------------
                             TOTAL OUT =   1240.099                                 TOTAL OUT =   9.324040    

                        NET (IN - OUT) = -0.1464844E-02                        NET (IN - OUT) = -0.1907349E-05
                 DISCREPANCY (PERCENT) = -0.1181232E-03                 DISCREPANCY (PERCENT) = -0.2045625E-04
                                              FLOW ERR (QIN-QOUT-DV) = -0.9536743E-06 [L3/T]




 >>>>>>>>>>>>>>>>>>>>>>>>>>>>>>>>>>>>>>>>>>>>>>>>>>>>>>>FOR COMPONENT NO. 01<<<<<<<<<<<<<<<<<<<<<<<<<<<<<<<<<<<<<<<<<<<<<<<<<<<<<<<


                                            -------------------------------------------
                                                      TRANSPORT STEP NO.  133
                                            -------------------------------------------

 TOTAL ELAPSED TIME SINCE BEGINNING OF SIMULATION =   23940.00    D   
 .....................................................................

                     CUMULATIVE MASS BUDGETS AT END OF TRANSPORT STEP  133, TIME STEP    1, STRESS PERIOD    1
                     -----------------------------------------------------------------------------------------

                                                             IN                           OUT
                                                      ----------------             ----------------
                               CONSTANT CONCENTRATION:    0.000000                    0.000000    
                                        CONSTANT HEAD:    298.8242                   -165.9559    
                                               STREAM:    0.000000                   -132.8722    
                               MASS STOR (FLOW MODEL):   0.4036921E-02              -0.5466005E-07
                                MASS STORAGE (SOLUTE):    0.000000                    0.000000    
                            ---------------------------------------------------------------------------
                                              [TOTAL]:    298.8282     KG            -298.8281     KG  

                                                          NET (IN - OUT):   0.1220703E-03
                                                   DISCREPANCY (PERCENT):   0.4084967E-04
     2 CALLS TO GCG PACKAGE FOR TRANSPORT TIME STEP   134 IN FLOW TIME STEP     1 STRESS PERIOD     1
      2 TOTAL ITERATIONS
  MAXIMUM CONCENTRATION CHANGES FOR EACH ITERATION:
  MAX. CHANGE LAYER,ROW,COL MAX. CHANGE LAYER,ROW,COL MAX. CHANGE LAYER,ROW,COL MAX. CHANGE LAYER,ROW,COL MAX. CHANGE LAYER,ROW,COL
 ------------------------------------------------------------------------------------------------------------------------------------
    0.000     (  1,  1,  1)   0.000     (  1,  1,  1)


                     STREAM MASS BUDGETS AT END OF TRANSPORT STEP  134, TIME STEP    1, STRESS PERIOD    1 FOR COMPONENT   1
                     -------------------------------------------------------------------------------------------------------

                                         CUMULATIVE MASS [M]                                     MASS FOR THIS TIME STEP [M]
                                         -------------------                                    --------------
                      STREAM DEPLETION =  0.4101220E-04                      STREAM DEPLETION =  0.1645335E-07
                      INFLOW TO STREAM =   1115.551                          INFLOW TO STREAM =   8.325000    
                          GW TO STREAM =   133.8712                              GW TO STREAM =  0.9990391    
                         PRECIPITATION =   0.000000                             PRECIPITATION =   0.000000    
                                RUNOFF =   0.000000                                    RUNOFF =   0.000000    
                CONSTANT CONCENTRATION =   0.000000                    CONSTANT CONCENTRATION =   0.000000    
                             MASS GAIN =   0.000000                                 MASS GAIN =   0.000000    
                                         -------------------                                    --------------
                              TOTAL IN =   1249.422                                  TOTAL IN =   9.324039    

                   STREAM ACCUMULATION =  0.1211998E-02                   STREAM ACCUMULATION =  0.1293800E-05
                        STREAM OUTFLOW =   1249.422                            STREAM OUTFLOW =   9.324039    
                          STREAM TO GW =   0.000000                              STREAM TO GW =   0.000000    
                CONSTANT CONCENTRATION =   0.000000                    CONSTANT CONCENTRATION =   0.000000    
                           EVAPORATION =   0.000000                               EVAPORATION =   0.000000    
                             MASS LOSS =   0.000000                                 MASS LOSS =   0.000000    
                                         -------------------                                    --------------
                             TOTAL OUT =   1249.423                                 TOTAL OUT =   9.324040    

                        NET (IN - OUT) = -0.1586914E-02                        NET (IN - OUT) = -0.1907349E-05
                 DISCREPANCY (PERCENT) = -0.1270118E-03                 DISCREPANCY (PERCENT) = -0.2045625E-04
                                              FLOW ERR (QIN-QOUT-DV) = -0.9536743E-06 [L3/T]




 >>>>>>>>>>>>>>>>>>>>>>>>>>>>>>>>>>>>>>>>>>>>>>>>>>>>>>>FOR COMPONENT NO. 01<<<<<<<<<<<<<<<<<<<<<<<<<<<<<<<<<<<<<<<<<<<<<<<<<<<<<<<


                                            -------------------------------------------
                                                      TRANSPORT STEP NO.  134
                                            -------------------------------------------

 TOTAL ELAPSED TIME SINCE BEGINNING OF SIMULATION =   24120.00    D   
 .....................................................................

                     CUMULATIVE MASS BUDGETS AT END OF TRANSPORT STEP  134, TIME STEP    1, STRESS PERIOD    1
                     -----------------------------------------------------------------------------------------

                                                             IN                           OUT
                                                      ----------------             ----------------
                               CONSTANT CONCENTRATION:    0.000000                    0.000000    
                                        CONSTANT HEAD:    301.0710                   -167.2037    
                                               STREAM:    0.000000                   -133.8712    
                               MASS STOR (FLOW MODEL):   0.4067274E-02              -0.5507103E-07
                                MASS STORAGE (SOLUTE):    0.000000                    0.000000    
                            ---------------------------------------------------------------------------
                                              [TOTAL]:    301.0750     KG            -301.0749     KG  

                                                          NET (IN - OUT):   0.1220703E-03
                                                   DISCREPANCY (PERCENT):   0.4054483E-04
     2 CALLS TO GCG PACKAGE FOR TRANSPORT TIME STEP   135 IN FLOW TIME STEP     1 STRESS PERIOD     1
      2 TOTAL ITERATIONS
  MAXIMUM CONCENTRATION CHANGES FOR EACH ITERATION:
  MAX. CHANGE LAYER,ROW,COL MAX. CHANGE LAYER,ROW,COL MAX. CHANGE LAYER,ROW,COL MAX. CHANGE LAYER,ROW,COL MAX. CHANGE LAYER,ROW,COL
 ------------------------------------------------------------------------------------------------------------------------------------
    0.000     (  1,  1,  1)   0.000     (  1,  1,  1)


                     STREAM MASS BUDGETS AT END OF TRANSPORT STEP  135, TIME STEP    1, STRESS PERIOD    1 FOR COMPONENT   1
                     -------------------------------------------------------------------------------------------------------

                                         CUMULATIVE MASS [M]                                     MASS FOR THIS TIME STEP [M]
                                         -------------------                                    --------------
                      STREAM DEPLETION =  0.4102842E-04                      STREAM DEPLETION =  0.1621544E-07
                      INFLOW TO STREAM =   1123.875                          INFLOW TO STREAM =   8.325000    
                          GW TO STREAM =   134.8702                              GW TO STREAM =  0.9990391    
                         PRECIPITATION =   0.000000                             PRECIPITATION =   0.000000    
                                RUNOFF =   0.000000                                    RUNOFF =   0.000000    
                CONSTANT CONCENTRATION =   0.000000                    CONSTANT CONCENTRATION =   0.000000    
                             MASS GAIN =   0.000000                                 MASS GAIN =   0.000000    
                                         -------------------                                    --------------
                              TOTAL IN =   1258.746                                  TOTAL IN =   9.324039    

                   STREAM ACCUMULATION =  0.1213213E-02                   STREAM ACCUMULATION =  0.1214903E-05
                        STREAM OUTFLOW =   1258.746                            STREAM OUTFLOW =   9.324039    
                          STREAM TO GW =   0.000000                              STREAM TO GW =   0.000000    
                CONSTANT CONCENTRATION =   0.000000                    CONSTANT CONCENTRATION =   0.000000    
                           EVAPORATION =   0.000000                               EVAPORATION =   0.000000    
                             MASS LOSS =   0.000000                                 MASS LOSS =   0.000000    
                                         -------------------                                    --------------
                             TOTAL OUT =   1258.747                                 TOTAL OUT =   9.324040    

                        NET (IN - OUT) = -0.1708984E-02                        NET (IN - OUT) = -0.1907349E-05
                 DISCREPANCY (PERCENT) = -0.1357687E-03                 DISCREPANCY (PERCENT) = -0.2045625E-04
                                              FLOW ERR (QIN-QOUT-DV) = -0.9536743E-06 [L3/T]




 >>>>>>>>>>>>>>>>>>>>>>>>>>>>>>>>>>>>>>>>>>>>>>>>>>>>>>>FOR COMPONENT NO. 01<<<<<<<<<<<<<<<<<<<<<<<<<<<<<<<<<<<<<<<<<<<<<<<<<<<<<<<


                                            -------------------------------------------
                                                      TRANSPORT STEP NO.  135
                                            -------------------------------------------

 TOTAL ELAPSED TIME SINCE BEGINNING OF SIMULATION =   24300.00    D   
 .....................................................................

                     CUMULATIVE MASS BUDGETS AT END OF TRANSPORT STEP  135, TIME STEP    1, STRESS PERIOD    1
                     -----------------------------------------------------------------------------------------

                                                             IN                           OUT
                                                      ----------------             ----------------
                               CONSTANT CONCENTRATION:    0.000000                    0.000000    
                                        CONSTANT HEAD:    303.3177                   -168.4515    
                                               STREAM:    0.000000                   -134.8702    
                               MASS STOR (FLOW MODEL):   0.4097627E-02              -0.5548201E-07
                                MASS STORAGE (SOLUTE):    0.000000                    0.000000    
                            ---------------------------------------------------------------------------
                                              [TOTAL]:    303.3218     KG            -303.3217     KG  

                                                          NET (IN - OUT):   0.1220703E-03
                                                   DISCREPANCY (PERCENT):   0.4024449E-04
     2 CALLS TO GCG PACKAGE FOR TRANSPORT TIME STEP   136 IN FLOW TIME STEP     1 STRESS PERIOD     1
      2 TOTAL ITERATIONS
  MAXIMUM CONCENTRATION CHANGES FOR EACH ITERATION:
  MAX. CHANGE LAYER,ROW,COL MAX. CHANGE LAYER,ROW,COL MAX. CHANGE LAYER,ROW,COL MAX. CHANGE LAYER,ROW,COL MAX. CHANGE LAYER,ROW,COL
 ------------------------------------------------------------------------------------------------------------------------------------
    0.000     (  1,  1,  1)   0.000     (  1,  1,  1)


                     STREAM MASS BUDGETS AT END OF TRANSPORT STEP  136, TIME STEP    1, STRESS PERIOD    1 FOR COMPONENT   1
                     -------------------------------------------------------------------------------------------------------

                                         CUMULATIVE MASS [M]                                     MASS FOR THIS TIME STEP [M]
                                         -------------------                                    --------------
                      STREAM DEPLETION =  0.4104438E-04                      STREAM DEPLETION =  0.1596224E-07
                      INFLOW TO STREAM =   1132.200                          INFLOW TO STREAM =   8.325000    
                          GW TO STREAM =   135.8693                              GW TO STREAM =  0.9990391    
                         PRECIPITATION =   0.000000                             PRECIPITATION =   0.000000    
                                RUNOFF =   0.000000                                    RUNOFF =   0.000000    
                CONSTANT CONCENTRATION =   0.000000                    CONSTANT CONCENTRATION =   0.000000    
                             MASS GAIN =   0.000000                                 MASS GAIN =   0.000000    
                                         -------------------                                    --------------
                              TOTAL IN =   1268.070                                  TOTAL IN =   9.324039    

                   STREAM ACCUMULATION =  0.1214353E-02                   STREAM ACCUMULATION =  0.1140123E-05
                        STREAM OUTFLOW =   1268.070                            STREAM OUTFLOW =   9.324039    
                          STREAM TO GW =   0.000000                              STREAM TO GW =   0.000000    
                CONSTANT CONCENTRATION =   0.000000                    CONSTANT CONCENTRATION =   0.000000    
                           EVAPORATION =   0.000000                               EVAPORATION =   0.000000    
                             MASS LOSS =   0.000000                                 MASS LOSS =   0.000000    
                                         -------------------                                    --------------
                             TOTAL OUT =   1268.072                                 TOTAL OUT =   9.324040    

                        NET (IN - OUT) = -0.1708984E-02                        NET (IN - OUT) = -0.1907349E-05
                 DISCREPANCY (PERCENT) = -0.1347704E-03                 DISCREPANCY (PERCENT) = -0.2045625E-04
                                              FLOW ERR (QIN-QOUT-DV) = -0.9536743E-06 [L3/T]




 >>>>>>>>>>>>>>>>>>>>>>>>>>>>>>>>>>>>>>>>>>>>>>>>>>>>>>>FOR COMPONENT NO. 01<<<<<<<<<<<<<<<<<<<<<<<<<<<<<<<<<<<<<<<<<<<<<<<<<<<<<<<


                                            -------------------------------------------
                                                      TRANSPORT STEP NO.  136
                                            -------------------------------------------

 TOTAL ELAPSED TIME SINCE BEGINNING OF SIMULATION =   24480.00    D   
 .....................................................................

                     CUMULATIVE MASS BUDGETS AT END OF TRANSPORT STEP  136, TIME STEP    1, STRESS PERIOD    1
                     -----------------------------------------------------------------------------------------

                                                             IN                           OUT
                                                      ----------------             ----------------
                               CONSTANT CONCENTRATION:    0.000000                    0.000000    
                                        CONSTANT HEAD:    305.5645                   -169.6992    
                                               STREAM:    0.000000                   -135.8693    
                               MASS STOR (FLOW MODEL):   0.4127979E-02              -0.5589299E-07
                                MASS STORAGE (SOLUTE):    0.000000                    0.000000    
                            ---------------------------------------------------------------------------
                                              [TOTAL]:    305.5687     KG            -305.5685     KG  

                                                          NET (IN - OUT):   0.1220703E-03
                                                   DISCREPANCY (PERCENT):   0.3994858E-04
     2 CALLS TO GCG PACKAGE FOR TRANSPORT TIME STEP   137 IN FLOW TIME STEP     1 STRESS PERIOD     1
      2 TOTAL ITERATIONS
  MAXIMUM CONCENTRATION CHANGES FOR EACH ITERATION:
  MAX. CHANGE LAYER,ROW,COL MAX. CHANGE LAYER,ROW,COL MAX. CHANGE LAYER,ROW,COL MAX. CHANGE LAYER,ROW,COL MAX. CHANGE LAYER,ROW,COL
 ------------------------------------------------------------------------------------------------------------------------------------
    0.000     (  1,  1,  1)   0.000     (  1,  1,  1)


                     STREAM MASS BUDGETS AT END OF TRANSPORT STEP  137, TIME STEP    1, STRESS PERIOD    1 FOR COMPONENT   1
                     -------------------------------------------------------------------------------------------------------

                                         CUMULATIVE MASS [M]                                     MASS FOR THIS TIME STEP [M]
                                         -------------------                                    --------------
                      STREAM DEPLETION =  0.4106008E-04                      STREAM DEPLETION =  0.1570466E-07
                      INFLOW TO STREAM =   1140.525                          INFLOW TO STREAM =   8.325000    
                          GW TO STREAM =   136.8683                              GW TO STREAM =  0.9990391    
                         PRECIPITATION =   0.000000                             PRECIPITATION =   0.000000    
                                RUNOFF =   0.000000                                    RUNOFF =   0.000000    
                CONSTANT CONCENTRATION =   0.000000                    CONSTANT CONCENTRATION =   0.000000    
                             MASS GAIN =   0.000000                                 MASS GAIN =   0.000000    
                                         -------------------                                    --------------
                              TOTAL IN =   1277.394                                  TOTAL IN =   9.324039    

                   STREAM ACCUMULATION =  0.1215422E-02                   STREAM ACCUMULATION =  0.1069346E-05
                        STREAM OUTFLOW =   1277.394                            STREAM OUTFLOW =   9.324039    
                          STREAM TO GW =   0.000000                              STREAM TO GW =   0.000000    
                CONSTANT CONCENTRATION =   0.000000                    CONSTANT CONCENTRATION =   0.000000    
                           EVAPORATION =   0.000000                               EVAPORATION =   0.000000    
                             MASS LOSS =   0.000000                                 MASS LOSS =   0.000000    
                                         -------------------                                    --------------
                             TOTAL OUT =   1277.396                                 TOTAL OUT =   9.324040    

                        NET (IN - OUT) = -0.1831055E-02                        NET (IN - OUT) = -0.1907349E-05
                 DISCREPANCY (PERCENT) = -0.1433429E-03                 DISCREPANCY (PERCENT) = -0.2045625E-04
                                              FLOW ERR (QIN-QOUT-DV) = -0.9536743E-06 [L3/T]




 >>>>>>>>>>>>>>>>>>>>>>>>>>>>>>>>>>>>>>>>>>>>>>>>>>>>>>>FOR COMPONENT NO. 01<<<<<<<<<<<<<<<<<<<<<<<<<<<<<<<<<<<<<<<<<<<<<<<<<<<<<<<


                                            -------------------------------------------
                                                      TRANSPORT STEP NO.  137
                                            -------------------------------------------

 TOTAL ELAPSED TIME SINCE BEGINNING OF SIMULATION =   24660.00    D   
 .....................................................................

                     CUMULATIVE MASS BUDGETS AT END OF TRANSPORT STEP  137, TIME STEP    1, STRESS PERIOD    1
                     -----------------------------------------------------------------------------------------

                                                             IN                           OUT
                                                      ----------------             ----------------
                               CONSTANT CONCENTRATION:    0.000000                    0.000000    
                                        CONSTANT HEAD:    307.8113                   -170.9470    
                                               STREAM:    0.000000                   -136.8683    
                               MASS STOR (FLOW MODEL):   0.4158332E-02              -0.5630396E-07
                                MASS STORAGE (SOLUTE):    0.000000                    0.000000    
                            ---------------------------------------------------------------------------
                                              [TOTAL]:    307.8155     KG            -307.8154     KG  

                                                          NET (IN - OUT):   0.1220703E-03
                                                   DISCREPANCY (PERCENT):   0.3965698E-04
     2 CALLS TO GCG PACKAGE FOR TRANSPORT TIME STEP   138 IN FLOW TIME STEP     1 STRESS PERIOD     1
      2 TOTAL ITERATIONS
  MAXIMUM CONCENTRATION CHANGES FOR EACH ITERATION:
  MAX. CHANGE LAYER,ROW,COL MAX. CHANGE LAYER,ROW,COL MAX. CHANGE LAYER,ROW,COL MAX. CHANGE LAYER,ROW,COL MAX. CHANGE LAYER,ROW,COL
 ------------------------------------------------------------------------------------------------------------------------------------
    0.000     (  1,  1,  1)   0.000     (  1,  1,  1)


                     STREAM MASS BUDGETS AT END OF TRANSPORT STEP  138, TIME STEP    1, STRESS PERIOD    1 FOR COMPONENT   1
                     -------------------------------------------------------------------------------------------------------

                                         CUMULATIVE MASS [M]                                     MASS FOR THIS TIME STEP [M]
                                         -------------------                                    --------------
                      STREAM DEPLETION =  0.4107555E-04                      STREAM DEPLETION =  0.1546605E-07
                      INFLOW TO STREAM =   1148.850                          INFLOW TO STREAM =   8.325000    
                          GW TO STREAM =   137.8674                              GW TO STREAM =  0.9990391    
                         PRECIPITATION =   0.000000                             PRECIPITATION =   0.000000    
                                RUNOFF =   0.000000                                    RUNOFF =   0.000000    
                CONSTANT CONCENTRATION =   0.000000                    CONSTANT CONCENTRATION =   0.000000    
                             MASS GAIN =   0.000000                                 MASS GAIN =   0.000000    
                                         -------------------                                    --------------
                              TOTAL IN =   1286.718                                  TOTAL IN =   9.324039    

                   STREAM ACCUMULATION =  0.1216425E-02                   STREAM ACCUMULATION =  0.1002416E-05
                        STREAM OUTFLOW =   1286.719                            STREAM OUTFLOW =   9.324039    
                          STREAM TO GW =   0.000000                              STREAM TO GW =   0.000000    
                CONSTANT CONCENTRATION =   0.000000                    CONSTANT CONCENTRATION =   0.000000    
                           EVAPORATION =   0.000000                               EVAPORATION =   0.000000    
                             MASS LOSS =   0.000000                                 MASS LOSS =   0.000000    
                                         -------------------                                    --------------
                             TOTAL OUT =   1286.720                                 TOTAL OUT =   9.324040    

                        NET (IN - OUT) = -0.1953125E-02                        NET (IN - OUT) = -0.1907349E-05
                 DISCREPANCY (PERCENT) = -0.1517911E-03                 DISCREPANCY (PERCENT) = -0.2045625E-04
                                              FLOW ERR (QIN-QOUT-DV) = -0.9536743E-06 [L3/T]




 >>>>>>>>>>>>>>>>>>>>>>>>>>>>>>>>>>>>>>>>>>>>>>>>>>>>>>>FOR COMPONENT NO. 01<<<<<<<<<<<<<<<<<<<<<<<<<<<<<<<<<<<<<<<<<<<<<<<<<<<<<<<


                                            -------------------------------------------
                                                      TRANSPORT STEP NO.  138
                                            -------------------------------------------

 TOTAL ELAPSED TIME SINCE BEGINNING OF SIMULATION =   24840.00    D   
 .....................................................................

                     CUMULATIVE MASS BUDGETS AT END OF TRANSPORT STEP  138, TIME STEP    1, STRESS PERIOD    1
                     -----------------------------------------------------------------------------------------

                                                             IN                           OUT
                                                      ----------------             ----------------
                               CONSTANT CONCENTRATION:    0.000000                    0.000000    
                                        CONSTANT HEAD:    310.0581                   -172.1948    
                                               STREAM:    0.000000                   -137.8674    
                               MASS STOR (FLOW MODEL):   0.4188685E-02              -0.5671494E-07
                                MASS STORAGE (SOLUTE):    0.000000                    0.000000    
                            ---------------------------------------------------------------------------
                                              [TOTAL]:    310.0623     KG            -310.0622     KG  

                                                          NET (IN - OUT):   0.1220703E-03
                                                   DISCREPANCY (PERCENT):   0.3936961E-04
     2 CALLS TO GCG PACKAGE FOR TRANSPORT TIME STEP   139 IN FLOW TIME STEP     1 STRESS PERIOD     1
      2 TOTAL ITERATIONS
  MAXIMUM CONCENTRATION CHANGES FOR EACH ITERATION:
  MAX. CHANGE LAYER,ROW,COL MAX. CHANGE LAYER,ROW,COL MAX. CHANGE LAYER,ROW,COL MAX. CHANGE LAYER,ROW,COL MAX. CHANGE LAYER,ROW,COL
 ------------------------------------------------------------------------------------------------------------------------------------
    0.000     (  1,  1,  1)   0.000     (  1,  1,  1)


                     STREAM MASS BUDGETS AT END OF TRANSPORT STEP  139, TIME STEP    1, STRESS PERIOD    1 FOR COMPONENT   1
                     -------------------------------------------------------------------------------------------------------

                                         CUMULATIVE MASS [M]                                     MASS FOR THIS TIME STEP [M]
                                         -------------------                                    --------------
                      STREAM DEPLETION =  0.4109074E-04                      STREAM DEPLETION =  0.1519237E-07
                      INFLOW TO STREAM =   1157.175                          INFLOW TO STREAM =   8.325000    
                          GW TO STREAM =   138.8664                              GW TO STREAM =  0.9990391    
                         PRECIPITATION =   0.000000                             PRECIPITATION =   0.000000    
                                RUNOFF =   0.000000                                    RUNOFF =   0.000000    
                CONSTANT CONCENTRATION =   0.000000                    CONSTANT CONCENTRATION =   0.000000    
                             MASS GAIN =   0.000000                                 MASS GAIN =   0.000000    
                                         -------------------                                    --------------
                              TOTAL IN =   1296.042                                  TOTAL IN =   9.324039    

                   STREAM ACCUMULATION =  0.1217364E-02                   STREAM ACCUMULATION =  0.9391500E-06
                        STREAM OUTFLOW =   1296.043                            STREAM OUTFLOW =   9.324040    
                          STREAM TO GW =   0.000000                              STREAM TO GW =   0.000000    
                CONSTANT CONCENTRATION =   0.000000                    CONSTANT CONCENTRATION =   0.000000    
                           EVAPORATION =   0.000000                               EVAPORATION =   0.000000    
                             MASS LOSS =   0.000000                                 MASS LOSS =   0.000000    
                                         -------------------                                    --------------
                             TOTAL OUT =   1296.044                                 TOTAL OUT =   9.324041    

                        NET (IN - OUT) = -0.2075195E-02                        NET (IN - OUT) = -0.2861023E-05
                 DISCREPANCY (PERCENT) = -0.1601178E-03                 DISCREPANCY (PERCENT) = -0.3068437E-04
                                              FLOW ERR (QIN-QOUT-DV) = -0.9536743E-06 [L3/T]




 >>>>>>>>>>>>>>>>>>>>>>>>>>>>>>>>>>>>>>>>>>>>>>>>>>>>>>>FOR COMPONENT NO. 01<<<<<<<<<<<<<<<<<<<<<<<<<<<<<<<<<<<<<<<<<<<<<<<<<<<<<<<


                                            -------------------------------------------
                                                      TRANSPORT STEP NO.  139
                                            -------------------------------------------

 TOTAL ELAPSED TIME SINCE BEGINNING OF SIMULATION =   25020.00    D   
 .....................................................................

                     CUMULATIVE MASS BUDGETS AT END OF TRANSPORT STEP  139, TIME STEP    1, STRESS PERIOD    1
                     -----------------------------------------------------------------------------------------

                                                             IN                           OUT
                                                      ----------------             ----------------
                               CONSTANT CONCENTRATION:    0.000000                    0.000000    
                                        CONSTANT HEAD:    312.3049                   -173.4426    
                                               STREAM:    0.000000                   -138.8664    
                               MASS STOR (FLOW MODEL):   0.4219037E-02              -0.5712592E-07
                                MASS STORAGE (SOLUTE):    0.000000                    0.000000    
                            ---------------------------------------------------------------------------
                                              [TOTAL]:    312.3091     KG            -312.3090     KG  

                                                          NET (IN - OUT):   0.1220703E-03
                                                   DISCREPANCY (PERCENT):   0.3908638E-04
     2 CALLS TO GCG PACKAGE FOR TRANSPORT TIME STEP   140 IN FLOW TIME STEP     1 STRESS PERIOD     1
      2 TOTAL ITERATIONS
  MAXIMUM CONCENTRATION CHANGES FOR EACH ITERATION:
  MAX. CHANGE LAYER,ROW,COL MAX. CHANGE LAYER,ROW,COL MAX. CHANGE LAYER,ROW,COL MAX. CHANGE LAYER,ROW,COL MAX. CHANGE LAYER,ROW,COL
 ------------------------------------------------------------------------------------------------------------------------------------
    0.000     (  1,  1,  1)   0.000     (  1,  1,  1)


                     STREAM MASS BUDGETS AT END OF TRANSPORT STEP  140, TIME STEP    1, STRESS PERIOD    1 FOR COMPONENT   1
                     -------------------------------------------------------------------------------------------------------

                                         CUMULATIVE MASS [M]                                     MASS FOR THIS TIME STEP [M]
                                         -------------------                                    --------------
                      STREAM DEPLETION =  0.4110571E-04                      STREAM DEPLETION =  0.1496551E-07
                      INFLOW TO STREAM =   1165.500                          INFLOW TO STREAM =   8.325000    
                          GW TO STREAM =   139.8654                              GW TO STREAM =  0.9990391    
                         PRECIPITATION =   0.000000                             PRECIPITATION =   0.000000    
                                RUNOFF =   0.000000                                    RUNOFF =   0.000000    
                CONSTANT CONCENTRATION =   0.000000                    CONSTANT CONCENTRATION =   0.000000    
                             MASS GAIN =   0.000000                                 MASS GAIN =   0.000000    
                                         -------------------                                    --------------
                              TOTAL IN =   1305.366                                  TOTAL IN =   9.324039    

                   STREAM ACCUMULATION =  0.1218243E-02                   STREAM ACCUMULATION =  0.8794527E-06
                        STREAM OUTFLOW =   1305.367                            STREAM OUTFLOW =   9.324040    
                          STREAM TO GW =   0.000000                              STREAM TO GW =   0.000000    
                CONSTANT CONCENTRATION =   0.000000                    CONSTANT CONCENTRATION =   0.000000    
                           EVAPORATION =   0.000000                               EVAPORATION =   0.000000    
                             MASS LOSS =   0.000000                                 MASS LOSS =   0.000000    
                                         -------------------                                    --------------
                             TOTAL OUT =   1305.368                                 TOTAL OUT =   9.324041    

                        NET (IN - OUT) = -0.2197266E-02                        NET (IN - OUT) = -0.2861023E-05
                 DISCREPANCY (PERCENT) = -0.1683255E-03                 DISCREPANCY (PERCENT) = -0.3068437E-04
                                              FLOW ERR (QIN-QOUT-DV) = -0.9536743E-06 [L3/T]




 >>>>>>>>>>>>>>>>>>>>>>>>>>>>>>>>>>>>>>>>>>>>>>>>>>>>>>>FOR COMPONENT NO. 01<<<<<<<<<<<<<<<<<<<<<<<<<<<<<<<<<<<<<<<<<<<<<<<<<<<<<<<


                                            -------------------------------------------
                                                      TRANSPORT STEP NO.  140
                                            -------------------------------------------

 TOTAL ELAPSED TIME SINCE BEGINNING OF SIMULATION =   25200.00    D   
 .....................................................................

                     CUMULATIVE MASS BUDGETS AT END OF TRANSPORT STEP  140, TIME STEP    1, STRESS PERIOD    1
                     -----------------------------------------------------------------------------------------

                                                             IN                           OUT
                                                      ----------------             ----------------
                               CONSTANT CONCENTRATION:    0.000000                    0.000000    
                                        CONSTANT HEAD:    314.5517                   -174.6904    
                                               STREAM:    0.000000                   -139.8654    
                               MASS STOR (FLOW MODEL):   0.4249390E-02              -0.5753690E-07
                                MASS STORAGE (SOLUTE):    0.000000                    0.000000    
                            ---------------------------------------------------------------------------
                                              [TOTAL]:    314.5560     KG            -314.5558     KG  

                                                          NET (IN - OUT):   0.1220703E-03
                                                   DISCREPANCY (PERCENT):   0.3880719E-04
     2 CALLS TO GCG PACKAGE FOR TRANSPORT TIME STEP   141 IN FLOW TIME STEP     1 STRESS PERIOD     1
      2 TOTAL ITERATIONS
  MAXIMUM CONCENTRATION CHANGES FOR EACH ITERATION:
  MAX. CHANGE LAYER,ROW,COL MAX. CHANGE LAYER,ROW,COL MAX. CHANGE LAYER,ROW,COL MAX. CHANGE LAYER,ROW,COL MAX. CHANGE LAYER,ROW,COL
 ------------------------------------------------------------------------------------------------------------------------------------
    0.000     (  1,  1,  1)   0.000     (  1,  1,  1)


                     STREAM MASS BUDGETS AT END OF TRANSPORT STEP  141, TIME STEP    1, STRESS PERIOD    1 FOR COMPONENT   1
                     -------------------------------------------------------------------------------------------------------

                                         CUMULATIVE MASS [M]                                     MASS FOR THIS TIME STEP [M]
                                         -------------------                                    --------------
                      STREAM DEPLETION =  0.4112045E-04                      STREAM DEPLETION =  0.1474529E-07
                      INFLOW TO STREAM =   1173.825                          INFLOW TO STREAM =   8.325000    
                          GW TO STREAM =   140.8645                              GW TO STREAM =  0.9990391    
                         PRECIPITATION =   0.000000                             PRECIPITATION =   0.000000    
                                RUNOFF =   0.000000                                    RUNOFF =   0.000000    
                CONSTANT CONCENTRATION =   0.000000                    CONSTANT CONCENTRATION =   0.000000    
                             MASS GAIN =   0.000000                                 MASS GAIN =   0.000000    
                                         -------------------                                    --------------
                              TOTAL IN =   1314.690                                  TOTAL IN =   9.324039    

                   STREAM ACCUMULATION =  0.1219066E-02                   STREAM ACCUMULATION =  0.8231578E-06
                        STREAM OUTFLOW =   1314.691                            STREAM OUTFLOW =   9.324040    
                          STREAM TO GW =   0.000000                              STREAM TO GW =   0.000000    
                CONSTANT CONCENTRATION =   0.000000                    CONSTANT CONCENTRATION =   0.000000    
                           EVAPORATION =   0.000000                               EVAPORATION =   0.000000    
                             MASS LOSS =   0.000000                                 MASS LOSS =   0.000000    
                                         -------------------                                    --------------
                             TOTAL OUT =   1314.692                                 TOTAL OUT =   9.324041    

                        NET (IN - OUT) = -0.2319336E-02                        NET (IN - OUT) = -0.2861023E-05
                 DISCREPANCY (PERCENT) = -0.1764168E-03                 DISCREPANCY (PERCENT) = -0.3068437E-04
                                              FLOW ERR (QIN-QOUT-DV) = -0.9536743E-06 [L3/T]




 >>>>>>>>>>>>>>>>>>>>>>>>>>>>>>>>>>>>>>>>>>>>>>>>>>>>>>>FOR COMPONENT NO. 01<<<<<<<<<<<<<<<<<<<<<<<<<<<<<<<<<<<<<<<<<<<<<<<<<<<<<<<


                                            -------------------------------------------
                                                      TRANSPORT STEP NO.  141
                                            -------------------------------------------

 TOTAL ELAPSED TIME SINCE BEGINNING OF SIMULATION =   25380.00    D   
 .....................................................................

                     CUMULATIVE MASS BUDGETS AT END OF TRANSPORT STEP  141, TIME STEP    1, STRESS PERIOD    1
                     -----------------------------------------------------------------------------------------

                                                             IN                           OUT
                                                      ----------------             ----------------
                               CONSTANT CONCENTRATION:    0.000000                    0.000000    
                                        CONSTANT HEAD:    316.7985                   -175.9382    
                                               STREAM:    0.000000                   -140.8645    
                               MASS STOR (FLOW MODEL):   0.4279743E-02              -0.5794788E-07
                                MASS STORAGE (SOLUTE):    0.000000                    0.000000    
                            ---------------------------------------------------------------------------
                                              [TOTAL]:    316.8028     KG            -316.8027     KG  

                                                          NET (IN - OUT):   0.1220703E-03
                                                   DISCREPANCY (PERCENT):   0.3853196E-04
     2 CALLS TO GCG PACKAGE FOR TRANSPORT TIME STEP   142 IN FLOW TIME STEP     1 STRESS PERIOD     1
      2 TOTAL ITERATIONS
  MAXIMUM CONCENTRATION CHANGES FOR EACH ITERATION:
  MAX. CHANGE LAYER,ROW,COL MAX. CHANGE LAYER,ROW,COL MAX. CHANGE LAYER,ROW,COL MAX. CHANGE LAYER,ROW,COL MAX. CHANGE LAYER,ROW,COL
 ------------------------------------------------------------------------------------------------------------------------------------
    0.000     (  1,  1,  1)   0.000     (  1,  1,  1)


                     STREAM MASS BUDGETS AT END OF TRANSPORT STEP  142, TIME STEP    1, STRESS PERIOD    1 FOR COMPONENT   1
                     -------------------------------------------------------------------------------------------------------

                                         CUMULATIVE MASS [M]                                     MASS FOR THIS TIME STEP [M]
                                         -------------------                                    --------------
                      STREAM DEPLETION =  0.4113495E-04                      STREAM DEPLETION =  0.1449293E-07
                      INFLOW TO STREAM =   1182.150                          INFLOW TO STREAM =   8.325000    
                          GW TO STREAM =   141.8635                              GW TO STREAM =  0.9990391    
                         PRECIPITATION =   0.000000                             PRECIPITATION =   0.000000    
                                RUNOFF =   0.000000                                    RUNOFF =   0.000000    
                CONSTANT CONCENTRATION =   0.000000                    CONSTANT CONCENTRATION =   0.000000    
                             MASS GAIN =   0.000000                                 MASS GAIN =   0.000000    
                                         -------------------                                    --------------
                              TOTAL IN =   1324.014                                  TOTAL IN =   9.324039    

                   STREAM ACCUMULATION =  0.1219837E-02                   STREAM ACCUMULATION =  0.7700519E-06
                        STREAM OUTFLOW =   1324.015                            STREAM OUTFLOW =   9.324040    
                          STREAM TO GW =   0.000000                              STREAM TO GW =   0.000000    
                CONSTANT CONCENTRATION =   0.000000                    CONSTANT CONCENTRATION =   0.000000    
                           EVAPORATION =   0.000000                               EVAPORATION =   0.000000    
                             MASS LOSS =   0.000000                                 MASS LOSS =   0.000000    
                                         -------------------                                    --------------
                             TOTAL OUT =   1324.016                                 TOTAL OUT =   9.324041    

                        NET (IN - OUT) = -0.2441406E-02                        NET (IN - OUT) = -0.2861023E-05
                 DISCREPANCY (PERCENT) = -0.1843942E-03                 DISCREPANCY (PERCENT) = -0.3068437E-04
                                              FLOW ERR (QIN-QOUT-DV) = -0.9536743E-06 [L3/T]




 >>>>>>>>>>>>>>>>>>>>>>>>>>>>>>>>>>>>>>>>>>>>>>>>>>>>>>>FOR COMPONENT NO. 01<<<<<<<<<<<<<<<<<<<<<<<<<<<<<<<<<<<<<<<<<<<<<<<<<<<<<<<


                                            -------------------------------------------
                                                      TRANSPORT STEP NO.  142
                                            -------------------------------------------

 TOTAL ELAPSED TIME SINCE BEGINNING OF SIMULATION =   25560.00    D   
 .....................................................................

                     CUMULATIVE MASS BUDGETS AT END OF TRANSPORT STEP  142, TIME STEP    1, STRESS PERIOD    1
                     -----------------------------------------------------------------------------------------

                                                             IN                           OUT
                                                      ----------------             ----------------
                               CONSTANT CONCENTRATION:    0.000000                    0.000000    
                                        CONSTANT HEAD:    319.0453                   -177.1860    
                                               STREAM:    0.000000                   -141.8635    
                               MASS STOR (FLOW MODEL):   0.4310096E-02              -0.5835885E-07
                                MASS STORAGE (SOLUTE):    0.000000                    0.000000    
                            ---------------------------------------------------------------------------
                                              [TOTAL]:    319.0496     KG            -319.0495     KG  

                                                          NET (IN - OUT):   0.1220703E-03
                                                   DISCREPANCY (PERCENT):   0.3826061E-04
     2 CALLS TO GCG PACKAGE FOR TRANSPORT TIME STEP   143 IN FLOW TIME STEP     1 STRESS PERIOD     1
      2 TOTAL ITERATIONS
  MAXIMUM CONCENTRATION CHANGES FOR EACH ITERATION:
  MAX. CHANGE LAYER,ROW,COL MAX. CHANGE LAYER,ROW,COL MAX. CHANGE LAYER,ROW,COL MAX. CHANGE LAYER,ROW,COL MAX. CHANGE LAYER,ROW,COL
 ------------------------------------------------------------------------------------------------------------------------------------
    0.000     (  1,  1,  1)   0.000     (  1,  1,  1)


                     STREAM MASS BUDGETS AT END OF TRANSPORT STEP  143, TIME STEP    1, STRESS PERIOD    1 FOR COMPONENT   1
                     -------------------------------------------------------------------------------------------------------

                                         CUMULATIVE MASS [M]                                     MASS FOR THIS TIME STEP [M]
                                         -------------------                                    --------------
                      STREAM DEPLETION =  0.4114926E-04                      STREAM DEPLETION =  0.1431152E-07
                      INFLOW TO STREAM =   1190.475                          INFLOW TO STREAM =   8.325000    
                          GW TO STREAM =   142.8625                              GW TO STREAM =  0.9990391    
                         PRECIPITATION =   0.000000                             PRECIPITATION =   0.000000    
                                RUNOFF =   0.000000                                    RUNOFF =   0.000000    
                CONSTANT CONCENTRATION =   0.000000                    CONSTANT CONCENTRATION =   0.000000    
                             MASS GAIN =   0.000000                                 MASS GAIN =   0.000000    
                                         -------------------                                    --------------
                              TOTAL IN =   1333.338                                  TOTAL IN =   9.324039    

                   STREAM ACCUMULATION =  0.1220557E-02                   STREAM ACCUMULATION =  0.7201152E-06
                        STREAM OUTFLOW =   1333.339                            STREAM OUTFLOW =   9.324040    
                          STREAM TO GW =   0.000000                              STREAM TO GW =   0.000000    
                CONSTANT CONCENTRATION =   0.000000                    CONSTANT CONCENTRATION =   0.000000    
                           EVAPORATION =   0.000000                               EVAPORATION =   0.000000    
                             MASS LOSS =   0.000000                                 MASS LOSS =   0.000000    
                                         -------------------                                    --------------
                             TOTAL OUT =   1333.340                                 TOTAL OUT =   9.324041    

                        NET (IN - OUT) = -0.2563477E-02                        NET (IN - OUT) = -0.2861023E-05
                 DISCREPANCY (PERCENT) = -0.1922599E-03                 DISCREPANCY (PERCENT) = -0.3068437E-04
                                              FLOW ERR (QIN-QOUT-DV) = -0.9536743E-06 [L3/T]




 >>>>>>>>>>>>>>>>>>>>>>>>>>>>>>>>>>>>>>>>>>>>>>>>>>>>>>>FOR COMPONENT NO. 01<<<<<<<<<<<<<<<<<<<<<<<<<<<<<<<<<<<<<<<<<<<<<<<<<<<<<<<


                                            -------------------------------------------
                                                      TRANSPORT STEP NO.  143
                                            -------------------------------------------

 TOTAL ELAPSED TIME SINCE BEGINNING OF SIMULATION =   25740.00    D   
 .....................................................................

                     CUMULATIVE MASS BUDGETS AT END OF TRANSPORT STEP  143, TIME STEP    1, STRESS PERIOD    1
                     -----------------------------------------------------------------------------------------

                                                             IN                           OUT
                                                      ----------------             ----------------
                               CONSTANT CONCENTRATION:    0.000000                    0.000000    
                                        CONSTANT HEAD:    321.2921                   -178.4338    
                                               STREAM:    0.000000                   -142.8625    
                               MASS STOR (FLOW MODEL):   0.4340448E-02              -0.5876983E-07
                                MASS STORAGE (SOLUTE):    0.000000                    0.000000    
                            ---------------------------------------------------------------------------
                                              [TOTAL]:    321.2964     KG            -321.2963     KG  

                                                          NET (IN - OUT):   0.1220703E-03
                                                   DISCREPANCY (PERCENT):   0.3799305E-04
     2 CALLS TO GCG PACKAGE FOR TRANSPORT TIME STEP   144 IN FLOW TIME STEP     1 STRESS PERIOD     1
      2 TOTAL ITERATIONS
  MAXIMUM CONCENTRATION CHANGES FOR EACH ITERATION:
  MAX. CHANGE LAYER,ROW,COL MAX. CHANGE LAYER,ROW,COL MAX. CHANGE LAYER,ROW,COL MAX. CHANGE LAYER,ROW,COL MAX. CHANGE LAYER,ROW,COL
 ------------------------------------------------------------------------------------------------------------------------------------
    0.000     (  1,  1,  1)   0.000     (  1,  1,  1)


                     STREAM MASS BUDGETS AT END OF TRANSPORT STEP  144, TIME STEP    1, STRESS PERIOD    1 FOR COMPONENT   1
                     -------------------------------------------------------------------------------------------------------

                                         CUMULATIVE MASS [M]                                     MASS FOR THIS TIME STEP [M]
                                         -------------------                                    --------------
                      STREAM DEPLETION =  0.4116334E-04                      STREAM DEPLETION =  0.1407748E-07
                      INFLOW TO STREAM =   1198.800                          INFLOW TO STREAM =   8.325000    
                          GW TO STREAM =   143.8616                              GW TO STREAM =  0.9990391    
                         PRECIPITATION =   0.000000                             PRECIPITATION =   0.000000    
                                RUNOFF =   0.000000                                    RUNOFF =   0.000000    
                CONSTANT CONCENTRATION =   0.000000                    CONSTANT CONCENTRATION =   0.000000    
                             MASS GAIN =   0.000000                                 MASS GAIN =   0.000000    
                                         -------------------                                    --------------
                              TOTAL IN =   1342.662                                  TOTAL IN =   9.324039    

                   STREAM ACCUMULATION =  0.1221230E-02                   STREAM ACCUMULATION =  0.6730560E-06
                        STREAM OUTFLOW =   1342.663                            STREAM OUTFLOW =   9.324040    
                          STREAM TO GW =   0.000000                              STREAM TO GW =   0.000000    
                CONSTANT CONCENTRATION =   0.000000                    CONSTANT CONCENTRATION =   0.000000    
                           EVAPORATION =   0.000000                               EVAPORATION =   0.000000    
                             MASS LOSS =   0.000000                                 MASS LOSS =   0.000000    
                                         -------------------                                    --------------
                             TOTAL OUT =   1342.664                                 TOTAL OUT =   9.324041    

                        NET (IN - OUT) = -0.2685547E-02                        NET (IN - OUT) = -0.2861023E-05
                 DISCREPANCY (PERCENT) = -0.2000165E-03                 DISCREPANCY (PERCENT) = -0.3068437E-04
                                              FLOW ERR (QIN-QOUT-DV) = -0.9536743E-06 [L3/T]




 >>>>>>>>>>>>>>>>>>>>>>>>>>>>>>>>>>>>>>>>>>>>>>>>>>>>>>>FOR COMPONENT NO. 01<<<<<<<<<<<<<<<<<<<<<<<<<<<<<<<<<<<<<<<<<<<<<<<<<<<<<<<


                                            -------------------------------------------
                                                      TRANSPORT STEP NO.  144
                                            -------------------------------------------

 TOTAL ELAPSED TIME SINCE BEGINNING OF SIMULATION =   25920.00    D   
 .....................................................................

                     CUMULATIVE MASS BUDGETS AT END OF TRANSPORT STEP  144, TIME STEP    1, STRESS PERIOD    1
                     -----------------------------------------------------------------------------------------

                                                             IN                           OUT
                                                      ----------------             ----------------
                               CONSTANT CONCENTRATION:    0.000000                    0.000000    
                                        CONSTANT HEAD:    323.5389                   -179.6815    
                                               STREAM:    0.000000                   -143.8616    
                               MASS STOR (FLOW MODEL):   0.4370801E-02              -0.5918081E-07
                                MASS STORAGE (SOLUTE):    0.000000                    0.000000    
                            ---------------------------------------------------------------------------
                                              [TOTAL]:    323.5433     KG            -323.5432     KG  

                                                          NET (IN - OUT):   0.1220703E-03
                                                   DISCREPANCY (PERCENT):   0.3772921E-04
     2 CALLS TO GCG PACKAGE FOR TRANSPORT TIME STEP   145 IN FLOW TIME STEP     1 STRESS PERIOD     1
      2 TOTAL ITERATIONS
  MAXIMUM CONCENTRATION CHANGES FOR EACH ITERATION:
  MAX. CHANGE LAYER,ROW,COL MAX. CHANGE LAYER,ROW,COL MAX. CHANGE LAYER,ROW,COL MAX. CHANGE LAYER,ROW,COL MAX. CHANGE LAYER,ROW,COL
 ------------------------------------------------------------------------------------------------------------------------------------
    0.000     (  1,  1,  1)   0.000     (  1,  1,  1)


                     STREAM MASS BUDGETS AT END OF TRANSPORT STEP  145, TIME STEP    1, STRESS PERIOD    1 FOR COMPONENT   1
                     -------------------------------------------------------------------------------------------------------

                                         CUMULATIVE MASS [M]                                     MASS FOR THIS TIME STEP [M]
                                         -------------------                                    --------------
                      STREAM DEPLETION =  0.4117728E-04                      STREAM DEPLETION =  0.1393943E-07
                      INFLOW TO STREAM =   1207.125                          INFLOW TO STREAM =   8.325000    
                          GW TO STREAM =   144.8606                              GW TO STREAM =  0.9990391    
                         PRECIPITATION =   0.000000                             PRECIPITATION =   0.000000    
                                RUNOFF =   0.000000                                    RUNOFF =   0.000000    
                CONSTANT CONCENTRATION =   0.000000                    CONSTANT CONCENTRATION =   0.000000    
                             MASS GAIN =   0.000000                                 MASS GAIN =   0.000000    
                                         -------------------                                    --------------
                              TOTAL IN =   1351.986                                  TOTAL IN =   9.324039    

                   STREAM ACCUMULATION =  0.1221859E-02                   STREAM ACCUMULATION =  0.6289044E-06
                        STREAM OUTFLOW =   1351.987                            STREAM OUTFLOW =   9.324040    
                          STREAM TO GW =   0.000000                              STREAM TO GW =   0.000000    
                CONSTANT CONCENTRATION =   0.000000                    CONSTANT CONCENTRATION =   0.000000    
                           EVAPORATION =   0.000000                               EVAPORATION =   0.000000    
                             MASS LOSS =   0.000000                                 MASS LOSS =   0.000000    
                                         -------------------                                    --------------
                             TOTAL OUT =   1351.988                                 TOTAL OUT =   9.324041    

                        NET (IN - OUT) = -0.2685547E-02                        NET (IN - OUT) = -0.2861023E-05
                 DISCREPANCY (PERCENT) = -0.1986370E-03                 DISCREPANCY (PERCENT) = -0.3068437E-04
                                              FLOW ERR (QIN-QOUT-DV) = -0.9536743E-06 [L3/T]




 >>>>>>>>>>>>>>>>>>>>>>>>>>>>>>>>>>>>>>>>>>>>>>>>>>>>>>>FOR COMPONENT NO. 01<<<<<<<<<<<<<<<<<<<<<<<<<<<<<<<<<<<<<<<<<<<<<<<<<<<<<<<


                                            -------------------------------------------
                                                      TRANSPORT STEP NO.  145
                                            -------------------------------------------

 TOTAL ELAPSED TIME SINCE BEGINNING OF SIMULATION =   26100.00    D   
 .....................................................................

                     CUMULATIVE MASS BUDGETS AT END OF TRANSPORT STEP  145, TIME STEP    1, STRESS PERIOD    1
                     -----------------------------------------------------------------------------------------

                                                             IN                           OUT
                                                      ----------------             ----------------
                               CONSTANT CONCENTRATION:    0.000000                    0.000000    
                                        CONSTANT HEAD:    325.7857                   -180.9293    
                                               STREAM:    0.000000                   -144.8606    
                               MASS STOR (FLOW MODEL):   0.4401154E-02              -0.5959179E-07
                                MASS STORAGE (SOLUTE):    0.000000                    0.000000    
                            ---------------------------------------------------------------------------
                                              [TOTAL]:    325.7901     KG            -325.7900     KG  

                                                          NET (IN - OUT):   0.1220703E-03
                                                   DISCREPANCY (PERCENT):   0.3746901E-04
     2 CALLS TO GCG PACKAGE FOR TRANSPORT TIME STEP   146 IN FLOW TIME STEP     1 STRESS PERIOD     1
      2 TOTAL ITERATIONS
  MAXIMUM CONCENTRATION CHANGES FOR EACH ITERATION:
  MAX. CHANGE LAYER,ROW,COL MAX. CHANGE LAYER,ROW,COL MAX. CHANGE LAYER,ROW,COL MAX. CHANGE LAYER,ROW,COL MAX. CHANGE LAYER,ROW,COL
 ------------------------------------------------------------------------------------------------------------------------------------
    0.000     (  1,  1,  1)   0.000     (  1,  1,  1)


                     STREAM MASS BUDGETS AT END OF TRANSPORT STEP  146, TIME STEP    1, STRESS PERIOD    1 FOR COMPONENT   1
                     -------------------------------------------------------------------------------------------------------

                                         CUMULATIVE MASS [M]                                     MASS FOR THIS TIME STEP [M]
                                         -------------------                                    --------------
                      STREAM DEPLETION =  0.4119100E-04                      STREAM DEPLETION =  0.1372010E-07
                      INFLOW TO STREAM =   1215.450                          INFLOW TO STREAM =   8.325000    
                          GW TO STREAM =   145.8597                              GW TO STREAM =  0.9990391    
                         PRECIPITATION =   0.000000                             PRECIPITATION =   0.000000    
                                RUNOFF =   0.000000                                    RUNOFF =   0.000000    
                CONSTANT CONCENTRATION =   0.000000                    CONSTANT CONCENTRATION =   0.000000    
                             MASS GAIN =   0.000000                                 MASS GAIN =   0.000000    
                                         -------------------                                    --------------
                              TOTAL IN =   1361.310                                  TOTAL IN =   9.324039    

                   STREAM ACCUMULATION =  0.1222446E-02                   STREAM ACCUMULATION =  0.5873243E-06
                        STREAM OUTFLOW =   1361.311                            STREAM OUTFLOW =   9.324040    
                          STREAM TO GW =   0.000000                              STREAM TO GW =   0.000000    
                CONSTANT CONCENTRATION =   0.000000                    CONSTANT CONCENTRATION =   0.000000    
                           EVAPORATION =   0.000000                               EVAPORATION =   0.000000    
                             MASS LOSS =   0.000000                                 MASS LOSS =   0.000000    
                                         -------------------                                    --------------
                             TOTAL OUT =   1361.312                                 TOTAL OUT =   9.324041    

                        NET (IN - OUT) = -0.2807617E-02                        NET (IN - OUT) = -0.2861023E-05
                 DISCREPANCY (PERCENT) = -0.2062436E-03                 DISCREPANCY (PERCENT) = -0.3068437E-04
                                              FLOW ERR (QIN-QOUT-DV) = -0.9536743E-06 [L3/T]




 >>>>>>>>>>>>>>>>>>>>>>>>>>>>>>>>>>>>>>>>>>>>>>>>>>>>>>>FOR COMPONENT NO. 01<<<<<<<<<<<<<<<<<<<<<<<<<<<<<<<<<<<<<<<<<<<<<<<<<<<<<<<


                                            -------------------------------------------
                                                      TRANSPORT STEP NO.  146
                                            -------------------------------------------

 TOTAL ELAPSED TIME SINCE BEGINNING OF SIMULATION =   26280.00    D   
 .....................................................................

                     CUMULATIVE MASS BUDGETS AT END OF TRANSPORT STEP  146, TIME STEP    1, STRESS PERIOD    1
                     -----------------------------------------------------------------------------------------

                                                             IN                           OUT
                                                      ----------------             ----------------
                               CONSTANT CONCENTRATION:    0.000000                    0.000000    
                                        CONSTANT HEAD:    328.0325                   -182.1771    
                                               STREAM:    0.000000                   -145.8597    
                               MASS STOR (FLOW MODEL):   0.4431507E-02              -0.6000276E-07
                                MASS STORAGE (SOLUTE):    0.000000                    0.000000    
                            ---------------------------------------------------------------------------
                                              [TOTAL]:    328.0369     KG            -328.0368     KG  

                                                          NET (IN - OUT):   0.1220703E-03
                                                   DISCREPANCY (PERCENT):   0.3721238E-04
     2 CALLS TO GCG PACKAGE FOR TRANSPORT TIME STEP   147 IN FLOW TIME STEP     1 STRESS PERIOD     1
      2 TOTAL ITERATIONS
  MAXIMUM CONCENTRATION CHANGES FOR EACH ITERATION:
  MAX. CHANGE LAYER,ROW,COL MAX. CHANGE LAYER,ROW,COL MAX. CHANGE LAYER,ROW,COL MAX. CHANGE LAYER,ROW,COL MAX. CHANGE LAYER,ROW,COL
 ------------------------------------------------------------------------------------------------------------------------------------
    0.000     (  1,  1,  1)   0.000     (  1,  1,  1)


                     STREAM MASS BUDGETS AT END OF TRANSPORT STEP  147, TIME STEP    1, STRESS PERIOD    1 FOR COMPONENT   1
                     -------------------------------------------------------------------------------------------------------

                                         CUMULATIVE MASS [M]                                     MASS FOR THIS TIME STEP [M]
                                         -------------------                                    --------------
                      STREAM DEPLETION =  0.4120457E-04                      STREAM DEPLETION =  0.1356838E-07
                      INFLOW TO STREAM =   1223.775                          INFLOW TO STREAM =   8.325000    
                          GW TO STREAM =   146.8587                              GW TO STREAM =  0.9990391    
                         PRECIPITATION =   0.000000                             PRECIPITATION =   0.000000    
                                RUNOFF =   0.000000                                    RUNOFF =   0.000000    
                CONSTANT CONCENTRATION =   0.000000                    CONSTANT CONCENTRATION =   0.000000    
                             MASS GAIN =   0.000000                                 MASS GAIN =   0.000000    
                                         -------------------                                    --------------
                              TOTAL IN =   1370.634                                  TOTAL IN =   9.324039    

                   STREAM ACCUMULATION =  0.1222994E-02                   STREAM ACCUMULATION =  0.5483511E-06
                        STREAM OUTFLOW =   1370.635                            STREAM OUTFLOW =   9.324040    
                          STREAM TO GW =   0.000000                              STREAM TO GW =   0.000000    
                CONSTANT CONCENTRATION =   0.000000                    CONSTANT CONCENTRATION =   0.000000    
                           EVAPORATION =   0.000000                               EVAPORATION =   0.000000    
                             MASS LOSS =   0.000000                                 MASS LOSS =   0.000000    
                                         -------------------                                    --------------
                             TOTAL OUT =   1370.637                                 TOTAL OUT =   9.324041    

                        NET (IN - OUT) = -0.2929688E-02                        NET (IN - OUT) = -0.2861023E-05
                 DISCREPANCY (PERCENT) = -0.2137467E-03                 DISCREPANCY (PERCENT) = -0.3068437E-04
                                              FLOW ERR (QIN-QOUT-DV) = -0.9536743E-06 [L3/T]




 >>>>>>>>>>>>>>>>>>>>>>>>>>>>>>>>>>>>>>>>>>>>>>>>>>>>>>>FOR COMPONENT NO. 01<<<<<<<<<<<<<<<<<<<<<<<<<<<<<<<<<<<<<<<<<<<<<<<<<<<<<<<


                                            -------------------------------------------
                                                      TRANSPORT STEP NO.  147
                                            -------------------------------------------

 TOTAL ELAPSED TIME SINCE BEGINNING OF SIMULATION =   26460.00    D   
 .....................................................................

                     CUMULATIVE MASS BUDGETS AT END OF TRANSPORT STEP  147, TIME STEP    1, STRESS PERIOD    1
                     -----------------------------------------------------------------------------------------

                                                             IN                           OUT
                                                      ----------------             ----------------
                               CONSTANT CONCENTRATION:    0.000000                    0.000000    
                                        CONSTANT HEAD:    330.2793                   -183.4249    
                                               STREAM:    0.000000                   -146.8587    
                               MASS STOR (FLOW MODEL):   0.4461859E-02              -0.6041374E-07
                                MASS STORAGE (SOLUTE):    0.000000                    0.000000    
                            ---------------------------------------------------------------------------
                                              [TOTAL]:    330.2838     KG            -330.2836     KG  

                                                          NET (IN - OUT):   0.1220703E-03
                                                   DISCREPANCY (PERCENT):   0.3695923E-04
     2 CALLS TO GCG PACKAGE FOR TRANSPORT TIME STEP   148 IN FLOW TIME STEP     1 STRESS PERIOD     1
      2 TOTAL ITERATIONS
  MAXIMUM CONCENTRATION CHANGES FOR EACH ITERATION:
  MAX. CHANGE LAYER,ROW,COL MAX. CHANGE LAYER,ROW,COL MAX. CHANGE LAYER,ROW,COL MAX. CHANGE LAYER,ROW,COL MAX. CHANGE LAYER,ROW,COL
 ------------------------------------------------------------------------------------------------------------------------------------
    0.000     (  1,  1,  1)   0.000     (  1,  1,  1)


                     STREAM MASS BUDGETS AT END OF TRANSPORT STEP  148, TIME STEP    1, STRESS PERIOD    1 FOR COMPONENT   1
                     -------------------------------------------------------------------------------------------------------

                                         CUMULATIVE MASS [M]                                     MASS FOR THIS TIME STEP [M]
                                         -------------------                                    --------------
                      STREAM DEPLETION =  0.4121796E-04                      STREAM DEPLETION =  0.1339183E-07
                      INFLOW TO STREAM =   1232.100                          INFLOW TO STREAM =   8.325000    
                          GW TO STREAM =   147.8577                              GW TO STREAM =  0.9990391    
                         PRECIPITATION =   0.000000                             PRECIPITATION =   0.000000    
                                RUNOFF =   0.000000                                    RUNOFF =   0.000000    
                CONSTANT CONCENTRATION =   0.000000                    CONSTANT CONCENTRATION =   0.000000    
                             MASS GAIN =   0.000000                                 MASS GAIN =   0.000000    
                                         -------------------                                    --------------
                              TOTAL IN =   1379.958                                  TOTAL IN =   9.324039    

                   STREAM ACCUMULATION =  0.1223506E-02                   STREAM ACCUMULATION =  0.5117423E-06
                        STREAM OUTFLOW =   1379.959                            STREAM OUTFLOW =   9.324040    
                          STREAM TO GW =   0.000000                              STREAM TO GW =   0.000000    
                CONSTANT CONCENTRATION =   0.000000                    CONSTANT CONCENTRATION =   0.000000    
                           EVAPORATION =   0.000000                               EVAPORATION =   0.000000    
                             MASS LOSS =   0.000000                                 MASS LOSS =   0.000000    
                                         -------------------                                    --------------
                             TOTAL OUT =   1379.961                                 TOTAL OUT =   9.324041    

                        NET (IN - OUT) = -0.3051758E-02                        NET (IN - OUT) = -0.2861023E-05
                 DISCREPANCY (PERCENT) = -0.2211484E-03                 DISCREPANCY (PERCENT) = -0.3068437E-04
                                              FLOW ERR (QIN-QOUT-DV) = -0.9536743E-06 [L3/T]




 >>>>>>>>>>>>>>>>>>>>>>>>>>>>>>>>>>>>>>>>>>>>>>>>>>>>>>>FOR COMPONENT NO. 01<<<<<<<<<<<<<<<<<<<<<<<<<<<<<<<<<<<<<<<<<<<<<<<<<<<<<<<


                                            -------------------------------------------
                                                      TRANSPORT STEP NO.  148
                                            -------------------------------------------

 TOTAL ELAPSED TIME SINCE BEGINNING OF SIMULATION =   26640.00    D   
 .....................................................................

                     CUMULATIVE MASS BUDGETS AT END OF TRANSPORT STEP  148, TIME STEP    1, STRESS PERIOD    1
                     -----------------------------------------------------------------------------------------

                                                             IN                           OUT
                                                      ----------------             ----------------
                               CONSTANT CONCENTRATION:    0.000000                    0.000000    
                                        CONSTANT HEAD:    332.5261                   -184.6727    
                                               STREAM:    0.000000                   -147.8577    
                               MASS STOR (FLOW MODEL):   0.4492212E-02              -0.6082472E-07
                                MASS STORAGE (SOLUTE):    0.000000                    0.000000    
                            ---------------------------------------------------------------------------
                                              [TOTAL]:    332.5306     KG            -332.5305     KG  

                                                          NET (IN - OUT):   0.1220703E-03
                                                   DISCREPANCY (PERCENT):   0.3670951E-04
     2 CALLS TO GCG PACKAGE FOR TRANSPORT TIME STEP   149 IN FLOW TIME STEP     1 STRESS PERIOD     1
      2 TOTAL ITERATIONS
  MAXIMUM CONCENTRATION CHANGES FOR EACH ITERATION:
  MAX. CHANGE LAYER,ROW,COL MAX. CHANGE LAYER,ROW,COL MAX. CHANGE LAYER,ROW,COL MAX. CHANGE LAYER,ROW,COL MAX. CHANGE LAYER,ROW,COL
 ------------------------------------------------------------------------------------------------------------------------------------
    0.000     (  1,  1,  1)   0.000     (  1,  1,  1)


                     STREAM MASS BUDGETS AT END OF TRANSPORT STEP  149, TIME STEP    1, STRESS PERIOD    1 FOR COMPONENT   1
                     -------------------------------------------------------------------------------------------------------

                                         CUMULATIVE MASS [M]                                     MASS FOR THIS TIME STEP [M]
                                         -------------------                                    --------------
                      STREAM DEPLETION =  0.4123116E-04                      STREAM DEPLETION =  0.1320064E-07
                      INFLOW TO STREAM =   1240.425                          INFLOW TO STREAM =   8.325000    
                          GW TO STREAM =   148.8568                              GW TO STREAM =  0.9990391    
                         PRECIPITATION =   0.000000                             PRECIPITATION =   0.000000    
                                RUNOFF =   0.000000                                    RUNOFF =   0.000000    
                CONSTANT CONCENTRATION =   0.000000                    CONSTANT CONCENTRATION =   0.000000    
                             MASS GAIN =   0.000000                                 MASS GAIN =   0.000000    
                                         -------------------                                    --------------
                              TOTAL IN =   1389.282                                  TOTAL IN =   9.324039    

                   STREAM ACCUMULATION =  0.1223983E-02                   STREAM ACCUMULATION =  0.4774025E-06
                        STREAM OUTFLOW =   1389.284                            STREAM OUTFLOW =   9.324040    
                          STREAM TO GW =   0.000000                              STREAM TO GW =   0.000000    
                CONSTANT CONCENTRATION =   0.000000                    CONSTANT CONCENTRATION =   0.000000    
                           EVAPORATION =   0.000000                               EVAPORATION =   0.000000    
                             MASS LOSS =   0.000000                                 MASS LOSS =   0.000000    
                                         -------------------                                    --------------
                             TOTAL OUT =   1389.285                                 TOTAL OUT =   9.324041    

                        NET (IN - OUT) = -0.3173828E-02                        NET (IN - OUT) = -0.2861023E-05
                 DISCREPANCY (PERCENT) = -0.2284508E-03                 DISCREPANCY (PERCENT) = -0.3068437E-04
                                              FLOW ERR (QIN-QOUT-DV) = -0.9536743E-06 [L3/T]




 >>>>>>>>>>>>>>>>>>>>>>>>>>>>>>>>>>>>>>>>>>>>>>>>>>>>>>>FOR COMPONENT NO. 01<<<<<<<<<<<<<<<<<<<<<<<<<<<<<<<<<<<<<<<<<<<<<<<<<<<<<<<


                                            -------------------------------------------
                                                      TRANSPORT STEP NO.  149
                                            -------------------------------------------

 TOTAL ELAPSED TIME SINCE BEGINNING OF SIMULATION =   26820.00    D   
 .....................................................................

                     CUMULATIVE MASS BUDGETS AT END OF TRANSPORT STEP  149, TIME STEP    1, STRESS PERIOD    1
                     -----------------------------------------------------------------------------------------

                                                             IN                           OUT
                                                      ----------------             ----------------
                               CONSTANT CONCENTRATION:    0.000000                    0.000000    
                                        CONSTANT HEAD:    334.7729                   -185.9205    
                                               STREAM:    0.000000                   -148.8568    
                               MASS STOR (FLOW MODEL):   0.4522565E-02              -0.6123570E-07
                                MASS STORAGE (SOLUTE):    0.000000                    0.000000    
                            ---------------------------------------------------------------------------
                                              [TOTAL]:    334.7774     KG            -334.7773     KG  

                                                          NET (IN - OUT):   0.1220703E-03
                                                   DISCREPANCY (PERCENT):   0.3646313E-04
     2 CALLS TO GCG PACKAGE FOR TRANSPORT TIME STEP   150 IN FLOW TIME STEP     1 STRESS PERIOD     1
      2 TOTAL ITERATIONS
  MAXIMUM CONCENTRATION CHANGES FOR EACH ITERATION:
  MAX. CHANGE LAYER,ROW,COL MAX. CHANGE LAYER,ROW,COL MAX. CHANGE LAYER,ROW,COL MAX. CHANGE LAYER,ROW,COL MAX. CHANGE LAYER,ROW,COL
 ------------------------------------------------------------------------------------------------------------------------------------
    0.000     (  1,  1,  1)   0.000     (  1,  1,  1)


                     STREAM MASS BUDGETS AT END OF TRANSPORT STEP  150, TIME STEP    1, STRESS PERIOD    1 FOR COMPONENT   1
                     -------------------------------------------------------------------------------------------------------

                                         CUMULATIVE MASS [M]                                     MASS FOR THIS TIME STEP [M]
                                         -------------------                                    --------------
                      STREAM DEPLETION =  0.4124422E-04                      STREAM DEPLETION =  0.1306157E-07
                      INFLOW TO STREAM =   1248.750                          INFLOW TO STREAM =   8.325000    
                          GW TO STREAM =   149.8558                              GW TO STREAM =  0.9990391    
                         PRECIPITATION =   0.000000                             PRECIPITATION =   0.000000    
                                RUNOFF =   0.000000                                    RUNOFF =   0.000000    
                CONSTANT CONCENTRATION =   0.000000                    CONSTANT CONCENTRATION =   0.000000    
                             MASS GAIN =   0.000000                                 MASS GAIN =   0.000000    
                                         -------------------                                    --------------
                              TOTAL IN =   1398.606                                  TOTAL IN =   9.324039    

                   STREAM ACCUMULATION =  0.1224429E-02                   STREAM ACCUMULATION =  0.4452570E-06
                        STREAM OUTFLOW =   1398.608                            STREAM OUTFLOW =   9.324040    
                          STREAM TO GW =   0.000000                              STREAM TO GW =   0.000000    
                CONSTANT CONCENTRATION =   0.000000                    CONSTANT CONCENTRATION =   0.000000    
                           EVAPORATION =   0.000000                               EVAPORATION =   0.000000    
                             MASS LOSS =   0.000000                                 MASS LOSS =   0.000000    
                                         -------------------                                    --------------
                             TOTAL OUT =   1398.609                                 TOTAL OUT =   9.324040    

                        NET (IN - OUT) = -0.3295898E-02                        NET (IN - OUT) = -0.1907349E-05
                 DISCREPANCY (PERCENT) = -0.2356558E-03                 DISCREPANCY (PERCENT) = -0.2045625E-04
                                              FLOW ERR (QIN-QOUT-DV) = -0.9536743E-06 [L3/T]




 >>>>>>>>>>>>>>>>>>>>>>>>>>>>>>>>>>>>>>>>>>>>>>>>>>>>>>>FOR COMPONENT NO. 01<<<<<<<<<<<<<<<<<<<<<<<<<<<<<<<<<<<<<<<<<<<<<<<<<<<<<<<


                                            -------------------------------------------
                                                      TRANSPORT STEP NO.  150
                                            -------------------------------------------

 TOTAL ELAPSED TIME SINCE BEGINNING OF SIMULATION =   27000.00    D   
 .....................................................................

                     CUMULATIVE MASS BUDGETS AT END OF TRANSPORT STEP  150, TIME STEP    1, STRESS PERIOD    1
                     -----------------------------------------------------------------------------------------

                                                             IN                           OUT
                                                      ----------------             ----------------
                               CONSTANT CONCENTRATION:    0.000000                    0.000000    
                                        CONSTANT HEAD:    337.0197                   -187.1683    
                                               STREAM:    0.000000                   -149.8558    
                               MASS STOR (FLOW MODEL):   0.4552918E-02              -0.6164667E-07
                                MASS STORAGE (SOLUTE):    0.000000                    0.000000    
                            ---------------------------------------------------------------------------
                                              [TOTAL]:    337.0242     KG            -337.0241     KG  

                                                          NET (IN - OUT):   0.1220703E-03
                                                   DISCREPANCY (PERCENT):   0.3622005E-04
     2 CALLS TO GCG PACKAGE FOR TRANSPORT TIME STEP   151 IN FLOW TIME STEP     1 STRESS PERIOD     1
      2 TOTAL ITERATIONS
  MAXIMUM CONCENTRATION CHANGES FOR EACH ITERATION:
  MAX. CHANGE LAYER,ROW,COL MAX. CHANGE LAYER,ROW,COL MAX. CHANGE LAYER,ROW,COL MAX. CHANGE LAYER,ROW,COL MAX. CHANGE LAYER,ROW,COL
 ------------------------------------------------------------------------------------------------------------------------------------
    0.000     (  1,  1,  1)   0.000     (  1,  1,  1)


                     STREAM MASS BUDGETS AT END OF TRANSPORT STEP  151, TIME STEP    1, STRESS PERIOD    1 FOR COMPONENT   1
                     -------------------------------------------------------------------------------------------------------

                                         CUMULATIVE MASS [M]                                     MASS FOR THIS TIME STEP [M]
                                         -------------------                                    --------------
                      STREAM DEPLETION =  0.4125705E-04                      STREAM DEPLETION =  0.1283084E-07
                      INFLOW TO STREAM =   1257.075                          INFLOW TO STREAM =   8.325000    
                          GW TO STREAM =   150.8549                              GW TO STREAM =  0.9990391    
                         PRECIPITATION =   0.000000                             PRECIPITATION =   0.000000    
                                RUNOFF =   0.000000                                    RUNOFF =   0.000000    
                CONSTANT CONCENTRATION =   0.000000                    CONSTANT CONCENTRATION =   0.000000    
                             MASS GAIN =   0.000000                                 MASS GAIN =   0.000000    
                                         -------------------                                    --------------
                              TOTAL IN =   1407.930                                  TOTAL IN =   9.324039    

                   STREAM ACCUMULATION =  0.1224844E-02                   STREAM ACCUMULATION =  0.4150650E-06
                        STREAM OUTFLOW =   1407.932                            STREAM OUTFLOW =   9.324040    
                          STREAM TO GW =   0.000000                              STREAM TO GW =   0.000000    
                CONSTANT CONCENTRATION =   0.000000                    CONSTANT CONCENTRATION =   0.000000    
                           EVAPORATION =   0.000000                               EVAPORATION =   0.000000    
                             MASS LOSS =   0.000000                                 MASS LOSS =   0.000000    
                                         -------------------                                    --------------
                             TOTAL OUT =   1407.933                                 TOTAL OUT =   9.324040    

                        NET (IN - OUT) = -0.3417969E-02                        NET (IN - OUT) = -0.1907349E-05
                 DISCREPANCY (PERCENT) = -0.2427653E-03                 DISCREPANCY (PERCENT) = -0.2045625E-04
                                              FLOW ERR (QIN-QOUT-DV) = -0.9536743E-06 [L3/T]




 >>>>>>>>>>>>>>>>>>>>>>>>>>>>>>>>>>>>>>>>>>>>>>>>>>>>>>>FOR COMPONENT NO. 01<<<<<<<<<<<<<<<<<<<<<<<<<<<<<<<<<<<<<<<<<<<<<<<<<<<<<<<


                                            -------------------------------------------
                                                      TRANSPORT STEP NO.  151
                                            -------------------------------------------

 TOTAL ELAPSED TIME SINCE BEGINNING OF SIMULATION =   27180.00    D   
 .....................................................................

                     CUMULATIVE MASS BUDGETS AT END OF TRANSPORT STEP  151, TIME STEP    1, STRESS PERIOD    1
                     -----------------------------------------------------------------------------------------

                                                             IN                           OUT
                                                      ----------------             ----------------
                               CONSTANT CONCENTRATION:    0.000000                    0.000000    
                                        CONSTANT HEAD:    339.2665                   -188.4161    
                                               STREAM:    0.000000                   -150.8549    
                               MASS STOR (FLOW MODEL):   0.4583270E-02              -0.6205765E-07
                                MASS STORAGE (SOLUTE):    0.000000                    0.000000    
                            ---------------------------------------------------------------------------
                                              [TOTAL]:    339.2711     KG            -339.2709     KG  

                                                          NET (IN - OUT):   0.1220703E-03
                                                   DISCREPANCY (PERCENT):   0.3598018E-04
     2 CALLS TO GCG PACKAGE FOR TRANSPORT TIME STEP   152 IN FLOW TIME STEP     1 STRESS PERIOD     1
      2 TOTAL ITERATIONS
  MAXIMUM CONCENTRATION CHANGES FOR EACH ITERATION:
  MAX. CHANGE LAYER,ROW,COL MAX. CHANGE LAYER,ROW,COL MAX. CHANGE LAYER,ROW,COL MAX. CHANGE LAYER,ROW,COL MAX. CHANGE LAYER,ROW,COL
 ------------------------------------------------------------------------------------------------------------------------------------
    0.000     (  1,  1,  1)   0.000     (  1,  1,  1)


                     STREAM MASS BUDGETS AT END OF TRANSPORT STEP  152, TIME STEP    1, STRESS PERIOD    1 FOR COMPONENT   1
                     -------------------------------------------------------------------------------------------------------

                                         CUMULATIVE MASS [M]                                     MASS FOR THIS TIME STEP [M]
                                         -------------------                                    --------------
                      STREAM DEPLETION =  0.4126981E-04                      STREAM DEPLETION =  0.1276126E-07
                      INFLOW TO STREAM =   1265.400                          INFLOW TO STREAM =   8.325000    
                          GW TO STREAM =   151.8539                              GW TO STREAM =  0.9990391    
                         PRECIPITATION =   0.000000                             PRECIPITATION =   0.000000    
                                RUNOFF =   0.000000                                    RUNOFF =   0.000000    
                CONSTANT CONCENTRATION =   0.000000                    CONSTANT CONCENTRATION =   0.000000    
                             MASS GAIN =   0.000000                                 MASS GAIN =   0.000000    
                                         -------------------                                    --------------
                              TOTAL IN =   1417.254                                  TOTAL IN =   9.324039    

                   STREAM ACCUMULATION =  0.1225231E-02                   STREAM ACCUMULATION =  0.3869480E-06
                        STREAM OUTFLOW =   1417.256                            STREAM OUTFLOW =   9.324040    
                          STREAM TO GW =   0.000000                              STREAM TO GW =   0.000000    
                CONSTANT CONCENTRATION =   0.000000                    CONSTANT CONCENTRATION =   0.000000    
                           EVAPORATION =   0.000000                               EVAPORATION =   0.000000    
                             MASS LOSS =   0.000000                                 MASS LOSS =   0.000000    
                                         -------------------                                    --------------
                             TOTAL OUT =   1417.257                                 TOTAL OUT =   9.324040    

                        NET (IN - OUT) = -0.3417969E-02                        NET (IN - OUT) = -0.1907349E-05
                 DISCREPANCY (PERCENT) = -0.2411682E-03                 DISCREPANCY (PERCENT) = -0.2045625E-04
                                              FLOW ERR (QIN-QOUT-DV) = -0.9536743E-06 [L3/T]




 >>>>>>>>>>>>>>>>>>>>>>>>>>>>>>>>>>>>>>>>>>>>>>>>>>>>>>>FOR COMPONENT NO. 01<<<<<<<<<<<<<<<<<<<<<<<<<<<<<<<<<<<<<<<<<<<<<<<<<<<<<<<


                                            -------------------------------------------
                                                      TRANSPORT STEP NO.  152
                                            -------------------------------------------

 TOTAL ELAPSED TIME SINCE BEGINNING OF SIMULATION =   27360.00    D   
 .....................................................................

                     CUMULATIVE MASS BUDGETS AT END OF TRANSPORT STEP  152, TIME STEP    1, STRESS PERIOD    1
                     -----------------------------------------------------------------------------------------

                                                             IN                           OUT
                                                      ----------------             ----------------
                               CONSTANT CONCENTRATION:    0.000000                    0.000000    
                                        CONSTANT HEAD:    341.5133                   -189.6638    
                                               STREAM:    0.000000                   -151.8539    
                               MASS STOR (FLOW MODEL):   0.4613623E-02              -0.6246863E-07
                                MASS STORAGE (SOLUTE):    0.000000                    0.000000    
                            ---------------------------------------------------------------------------
                                              [TOTAL]:    341.5179     KG            -341.5178     KG  

                                                          NET (IN - OUT):   0.1220703E-03
                                                   DISCREPANCY (PERCENT):   0.3574347E-04
     2 CALLS TO GCG PACKAGE FOR TRANSPORT TIME STEP   153 IN FLOW TIME STEP     1 STRESS PERIOD     1
      2 TOTAL ITERATIONS
  MAXIMUM CONCENTRATION CHANGES FOR EACH ITERATION:
  MAX. CHANGE LAYER,ROW,COL MAX. CHANGE LAYER,ROW,COL MAX. CHANGE LAYER,ROW,COL MAX. CHANGE LAYER,ROW,COL MAX. CHANGE LAYER,ROW,COL
 ------------------------------------------------------------------------------------------------------------------------------------
    0.000     (  1,  1,  1)   0.000     (  1,  1,  1)


                     STREAM MASS BUDGETS AT END OF TRANSPORT STEP  153, TIME STEP    1, STRESS PERIOD    1 FOR COMPONENT   1
                     -------------------------------------------------------------------------------------------------------

                                         CUMULATIVE MASS [M]                                     MASS FOR THIS TIME STEP [M]
                                         -------------------                                    --------------
                      STREAM DEPLETION =  0.4128230E-04                      STREAM DEPLETION =  0.1249087E-07
                      INFLOW TO STREAM =   1273.725                          INFLOW TO STREAM =   8.325000    
                          GW TO STREAM =   152.8529                              GW TO STREAM =  0.9990391    
                         PRECIPITATION =   0.000000                             PRECIPITATION =   0.000000    
                                RUNOFF =   0.000000                                    RUNOFF =   0.000000    
                CONSTANT CONCENTRATION =   0.000000                    CONSTANT CONCENTRATION =   0.000000    
                             MASS GAIN =   0.000000                                 MASS GAIN =   0.000000    
                                         -------------------                                    --------------
                              TOTAL IN =   1426.578                                  TOTAL IN =   9.324039    

                   STREAM ACCUMULATION =  0.1225591E-02                   STREAM ACCUMULATION =  0.3604542E-06
                        STREAM OUTFLOW =   1426.580                            STREAM OUTFLOW =   9.324040    
                          STREAM TO GW =   0.000000                              STREAM TO GW =   0.000000    
                CONSTANT CONCENTRATION =   0.000000                    CONSTANT CONCENTRATION =   0.000000    
                           EVAPORATION =   0.000000                               EVAPORATION =   0.000000    
                             MASS LOSS =   0.000000                                 MASS LOSS =   0.000000    
                                         -------------------                                    --------------
                             TOTAL OUT =   1426.581                                 TOTAL OUT =   9.324040    

                        NET (IN - OUT) = -0.3540039E-02                        NET (IN - OUT) = -0.1907349E-05
                 DISCREPANCY (PERCENT) = -0.2481488E-03                 DISCREPANCY (PERCENT) = -0.2045625E-04
                                              FLOW ERR (QIN-QOUT-DV) = -0.9536743E-06 [L3/T]




 >>>>>>>>>>>>>>>>>>>>>>>>>>>>>>>>>>>>>>>>>>>>>>>>>>>>>>>FOR COMPONENT NO. 01<<<<<<<<<<<<<<<<<<<<<<<<<<<<<<<<<<<<<<<<<<<<<<<<<<<<<<<


                                            -------------------------------------------
                                                      TRANSPORT STEP NO.  153
                                            -------------------------------------------

 TOTAL ELAPSED TIME SINCE BEGINNING OF SIMULATION =   27540.00    D   
 .....................................................................

                     CUMULATIVE MASS BUDGETS AT END OF TRANSPORT STEP  153, TIME STEP    1, STRESS PERIOD    1
                     -----------------------------------------------------------------------------------------

                                                             IN                           OUT
                                                      ----------------             ----------------
                               CONSTANT CONCENTRATION:    0.000000                    0.000000    
                                        CONSTANT HEAD:    343.7601                   -190.9116    
                                               STREAM:    0.000000                   -152.8529    
                               MASS STOR (FLOW MODEL):   0.4643976E-02              -0.6287961E-07
                                MASS STORAGE (SOLUTE):    0.000000                    0.000000    
                            ---------------------------------------------------------------------------
                                              [TOTAL]:    343.7647     KG            -343.7646     KG  

                                                          NET (IN - OUT):   0.1220703E-03
                                                   DISCREPANCY (PERCENT):   0.3550985E-04
     2 CALLS TO GCG PACKAGE FOR TRANSPORT TIME STEP   154 IN FLOW TIME STEP     1 STRESS PERIOD     1
      2 TOTAL ITERATIONS
  MAXIMUM CONCENTRATION CHANGES FOR EACH ITERATION:
  MAX. CHANGE LAYER,ROW,COL MAX. CHANGE LAYER,ROW,COL MAX. CHANGE LAYER,ROW,COL MAX. CHANGE LAYER,ROW,COL MAX. CHANGE LAYER,ROW,COL
 ------------------------------------------------------------------------------------------------------------------------------------
    0.000     (  1,  1,  1)   0.000     (  1,  1,  1)


                     STREAM MASS BUDGETS AT END OF TRANSPORT STEP  154, TIME STEP    1, STRESS PERIOD    1 FOR COMPONENT   1
                     -------------------------------------------------------------------------------------------------------

                                         CUMULATIVE MASS [M]                                     MASS FOR THIS TIME STEP [M]
                                         -------------------                                    --------------
                      STREAM DEPLETION =  0.4129474E-04                      STREAM DEPLETION =  0.1244358E-07
                      INFLOW TO STREAM =   1282.050                          INFLOW TO STREAM =   8.325000    
                          GW TO STREAM =   153.8520                              GW TO STREAM =  0.9990391    
                         PRECIPITATION =   0.000000                             PRECIPITATION =   0.000000    
                                RUNOFF =   0.000000                                    RUNOFF =   0.000000    
                CONSTANT CONCENTRATION =   0.000000                    CONSTANT CONCENTRATION =   0.000000    
                             MASS GAIN =   0.000000                                 MASS GAIN =   0.000000    
                                         -------------------                                    --------------
                              TOTAL IN =   1435.902                                  TOTAL IN =   9.324039    

                   STREAM ACCUMULATION =  0.1225927E-02                   STREAM ACCUMULATION =  0.3358860E-06
                        STREAM OUTFLOW =   1435.904                            STREAM OUTFLOW =   9.324040    
                          STREAM TO GW =   0.000000                              STREAM TO GW =   0.000000    
                CONSTANT CONCENTRATION =   0.000000                    CONSTANT CONCENTRATION =   0.000000    
                           EVAPORATION =   0.000000                               EVAPORATION =   0.000000    
                             MASS LOSS =   0.000000                                 MASS LOSS =   0.000000    
                                         -------------------                                    --------------
                             TOTAL OUT =   1435.905                                 TOTAL OUT =   9.324040    

                        NET (IN - OUT) = -0.3662109E-02                        NET (IN - OUT) = -0.1907349E-05
                 DISCREPANCY (PERCENT) = -0.2550387E-03                 DISCREPANCY (PERCENT) = -0.2045625E-04
                                              FLOW ERR (QIN-QOUT-DV) = -0.9536743E-06 [L3/T]




 >>>>>>>>>>>>>>>>>>>>>>>>>>>>>>>>>>>>>>>>>>>>>>>>>>>>>>>FOR COMPONENT NO. 01<<<<<<<<<<<<<<<<<<<<<<<<<<<<<<<<<<<<<<<<<<<<<<<<<<<<<<<


                                            -------------------------------------------
                                                      TRANSPORT STEP NO.  154
                                            -------------------------------------------

 TOTAL ELAPSED TIME SINCE BEGINNING OF SIMULATION =   27720.00    D   
 .....................................................................

                     CUMULATIVE MASS BUDGETS AT END OF TRANSPORT STEP  154, TIME STEP    1, STRESS PERIOD    1
                     -----------------------------------------------------------------------------------------

                                                             IN                           OUT
                                                      ----------------             ----------------
                               CONSTANT CONCENTRATION:    0.000000                    0.000000    
                                        CONSTANT HEAD:    346.0069                   -192.1594    
                                               STREAM:    0.000000                   -153.8520    
                               MASS STOR (FLOW MODEL):   0.4674328E-02              -0.6329059E-07
                                MASS STORAGE (SOLUTE):    0.000000                    0.000000    
                            ---------------------------------------------------------------------------
                                              [TOTAL]:    346.0115     KG            -346.0114     KG  

                                                          NET (IN - OUT):   0.1220703E-03
                                                   DISCREPANCY (PERCENT):   0.3527927E-04
     2 CALLS TO GCG PACKAGE FOR TRANSPORT TIME STEP   155 IN FLOW TIME STEP     1 STRESS PERIOD     1
      2 TOTAL ITERATIONS
  MAXIMUM CONCENTRATION CHANGES FOR EACH ITERATION:
  MAX. CHANGE LAYER,ROW,COL MAX. CHANGE LAYER,ROW,COL MAX. CHANGE LAYER,ROW,COL MAX. CHANGE LAYER,ROW,COL MAX. CHANGE LAYER,ROW,COL
 ------------------------------------------------------------------------------------------------------------------------------------
    0.000     (  1,  1,  1)   0.000     (  1,  1,  1)


                     STREAM MASS BUDGETS AT END OF TRANSPORT STEP  155, TIME STEP    1, STRESS PERIOD    1 FOR COMPONENT   1
                     -------------------------------------------------------------------------------------------------------

                                         CUMULATIVE MASS [M]                                     MASS FOR THIS TIME STEP [M]
                                         -------------------                                    --------------
                      STREAM DEPLETION =  0.4130691E-04                      STREAM DEPLETION =  0.1217043E-07
                      INFLOW TO STREAM =   1290.375                          INFLOW TO STREAM =   8.325000    
                          GW TO STREAM =   154.8510                              GW TO STREAM =  0.9990391    
                         PRECIPITATION =   0.000000                             PRECIPITATION =   0.000000    
                                RUNOFF =   0.000000                                    RUNOFF =   0.000000    
                CONSTANT CONCENTRATION =   0.000000                    CONSTANT CONCENTRATION =   0.000000    
                             MASS GAIN =   0.000000                                 MASS GAIN =   0.000000    
                                         -------------------                                    --------------
                              TOTAL IN =   1445.226                                  TOTAL IN =   9.324039    

                   STREAM ACCUMULATION =  0.1226240E-02                   STREAM ACCUMULATION =  0.3127135E-06
                        STREAM OUTFLOW =   1445.228                            STREAM OUTFLOW =   9.324040    
                          STREAM TO GW =   0.000000                              STREAM TO GW =   0.000000    
                CONSTANT CONCENTRATION =   0.000000                    CONSTANT CONCENTRATION =   0.000000    
                           EVAPORATION =   0.000000                               EVAPORATION =   0.000000    
                             MASS LOSS =   0.000000                                 MASS LOSS =   0.000000    
                                         -------------------                                    --------------
                             TOTAL OUT =   1445.229                                 TOTAL OUT =   9.324040    

                        NET (IN - OUT) = -0.3784180E-02                        NET (IN - OUT) = -0.1907349E-05
                 DISCREPANCY (PERCENT) = -0.2618397E-03                 DISCREPANCY (PERCENT) = -0.2045625E-04
                                              FLOW ERR (QIN-QOUT-DV) = -0.9536743E-06 [L3/T]




 >>>>>>>>>>>>>>>>>>>>>>>>>>>>>>>>>>>>>>>>>>>>>>>>>>>>>>>FOR COMPONENT NO. 01<<<<<<<<<<<<<<<<<<<<<<<<<<<<<<<<<<<<<<<<<<<<<<<<<<<<<<<


                                            -------------------------------------------
                                                      TRANSPORT STEP NO.  155
                                            -------------------------------------------

 TOTAL ELAPSED TIME SINCE BEGINNING OF SIMULATION =   27900.00    D   
 .....................................................................

                     CUMULATIVE MASS BUDGETS AT END OF TRANSPORT STEP  155, TIME STEP    1, STRESS PERIOD    1
                     -----------------------------------------------------------------------------------------

                                                             IN                           OUT
                                                      ----------------             ----------------
                               CONSTANT CONCENTRATION:    0.000000                    0.000000    
                                        CONSTANT HEAD:    348.2537                   -193.4072    
                                               STREAM:    0.000000                   -154.8510    
                               MASS STOR (FLOW MODEL):   0.4704681E-02              -0.6370156E-07
                                MASS STORAGE (SOLUTE):    0.000000                    0.000000    
                            ---------------------------------------------------------------------------
                                              [TOTAL]:    348.2584     KG            -348.2582     KG  

                                                          NET (IN - OUT):   0.1220703E-03
                                                   DISCREPANCY (PERCENT):   0.3505166E-04
     2 CALLS TO GCG PACKAGE FOR TRANSPORT TIME STEP   156 IN FLOW TIME STEP     1 STRESS PERIOD     1
      2 TOTAL ITERATIONS
  MAXIMUM CONCENTRATION CHANGES FOR EACH ITERATION:
  MAX. CHANGE LAYER,ROW,COL MAX. CHANGE LAYER,ROW,COL MAX. CHANGE LAYER,ROW,COL MAX. CHANGE LAYER,ROW,COL MAX. CHANGE LAYER,ROW,COL
 ------------------------------------------------------------------------------------------------------------------------------------
    0.000     (  1,  1,  1)   0.000     (  1,  1,  1)


                     STREAM MASS BUDGETS AT END OF TRANSPORT STEP  156, TIME STEP    1, STRESS PERIOD    1 FOR COMPONENT   1
                     -------------------------------------------------------------------------------------------------------

                                         CUMULATIVE MASS [M]                                     MASS FOR THIS TIME STEP [M]
                                         -------------------                                    --------------
                      STREAM DEPLETION =  0.4131904E-04                      STREAM DEPLETION =  0.1212552E-07
                      INFLOW TO STREAM =   1298.699                          INFLOW TO STREAM =   8.325000    
                          GW TO STREAM =   155.8501                              GW TO STREAM =  0.9990391    
                         PRECIPITATION =   0.000000                             PRECIPITATION =   0.000000    
                                RUNOFF =   0.000000                                    RUNOFF =   0.000000    
                CONSTANT CONCENTRATION =   0.000000                    CONSTANT CONCENTRATION =   0.000000    
                             MASS GAIN =   0.000000                                 MASS GAIN =   0.000000    
                                         -------------------                                    --------------
                              TOTAL IN =   1454.550                                  TOTAL IN =   9.324039    

                   STREAM ACCUMULATION =  0.1226531E-02                   STREAM ACCUMULATION =  0.2912787E-06
                        STREAM OUTFLOW =   1454.552                            STREAM OUTFLOW =   9.324040    
                          STREAM TO GW =   0.000000                              STREAM TO GW =   0.000000    
                CONSTANT CONCENTRATION =   0.000000                    CONSTANT CONCENTRATION =   0.000000    
                           EVAPORATION =   0.000000                               EVAPORATION =   0.000000    
                             MASS LOSS =   0.000000                                 MASS LOSS =   0.000000    
                                         -------------------                                    --------------
                             TOTAL OUT =   1454.553                                 TOTAL OUT =   9.324040    

                        NET (IN - OUT) = -0.3906250E-02                        NET (IN - OUT) = -0.1907349E-05
                 DISCREPANCY (PERCENT) = -0.2685536E-03                 DISCREPANCY (PERCENT) = -0.2045625E-04
                                              FLOW ERR (QIN-QOUT-DV) = -0.9536743E-06 [L3/T]




 >>>>>>>>>>>>>>>>>>>>>>>>>>>>>>>>>>>>>>>>>>>>>>>>>>>>>>>FOR COMPONENT NO. 01<<<<<<<<<<<<<<<<<<<<<<<<<<<<<<<<<<<<<<<<<<<<<<<<<<<<<<<


                                            -------------------------------------------
                                                      TRANSPORT STEP NO.  156
                                            -------------------------------------------

 TOTAL ELAPSED TIME SINCE BEGINNING OF SIMULATION =   28080.00    D   
 .....................................................................

                     CUMULATIVE MASS BUDGETS AT END OF TRANSPORT STEP  156, TIME STEP    1, STRESS PERIOD    1
                     -----------------------------------------------------------------------------------------

                                                             IN                           OUT
                                                      ----------------             ----------------
                               CONSTANT CONCENTRATION:    0.000000                    0.000000    
                                        CONSTANT HEAD:    350.5005                   -194.6550    
                                               STREAM:    0.000000                   -155.8501    
                               MASS STOR (FLOW MODEL):   0.4735034E-02              -0.6411254E-07
                                MASS STORAGE (SOLUTE):    0.000000                    0.000000    
                            ---------------------------------------------------------------------------
                                              [TOTAL]:    350.5052     KG            -350.5051     KG  

                                                          NET (IN - OUT):   0.1220703E-03
                                                   DISCREPANCY (PERCENT):   0.3482697E-04
     2 CALLS TO GCG PACKAGE FOR TRANSPORT TIME STEP   157 IN FLOW TIME STEP     1 STRESS PERIOD     1
      2 TOTAL ITERATIONS
  MAXIMUM CONCENTRATION CHANGES FOR EACH ITERATION:
  MAX. CHANGE LAYER,ROW,COL MAX. CHANGE LAYER,ROW,COL MAX. CHANGE LAYER,ROW,COL MAX. CHANGE LAYER,ROW,COL MAX. CHANGE LAYER,ROW,COL
 ------------------------------------------------------------------------------------------------------------------------------------
    0.000     (  1,  1,  1)   0.000     (  1,  1,  1)


                     STREAM MASS BUDGETS AT END OF TRANSPORT STEP  157, TIME STEP    1, STRESS PERIOD    1 FOR COMPONENT   1
                     -------------------------------------------------------------------------------------------------------

                                         CUMULATIVE MASS [M]                                     MASS FOR THIS TIME STEP [M]
                                         -------------------                                    --------------
                      STREAM DEPLETION =  0.4133089E-04                      STREAM DEPLETION =  0.1185216E-07
                      INFLOW TO STREAM =   1307.024                          INFLOW TO STREAM =   8.325000    
                          GW TO STREAM =   156.8491                              GW TO STREAM =  0.9990391    
                         PRECIPITATION =   0.000000                             PRECIPITATION =   0.000000    
                                RUNOFF =   0.000000                                    RUNOFF =   0.000000    
                CONSTANT CONCENTRATION =   0.000000                    CONSTANT CONCENTRATION =   0.000000    
                             MASS GAIN =   0.000000                                 MASS GAIN =   0.000000    
                                         -------------------                                    --------------
                              TOTAL IN =   1463.874                                  TOTAL IN =   9.324039    

                   STREAM ACCUMULATION =  0.1226802E-02                   STREAM ACCUMULATION =  0.2710519E-06
                        STREAM OUTFLOW =   1463.876                            STREAM OUTFLOW =   9.324040    
                          STREAM TO GW =   0.000000                              STREAM TO GW =   0.000000    
                CONSTANT CONCENTRATION =   0.000000                    CONSTANT CONCENTRATION =   0.000000    
                           EVAPORATION =   0.000000                               EVAPORATION =   0.000000    
                             MASS LOSS =   0.000000                                 MASS LOSS =   0.000000    
                                         -------------------                                    --------------
                             TOTAL OUT =   1463.878                                 TOTAL OUT =   9.324040    

                        NET (IN - OUT) = -0.4028320E-02                        NET (IN - OUT) = -0.1907349E-05
                 DISCREPANCY (PERCENT) = -0.2751819E-03                 DISCREPANCY (PERCENT) = -0.2045625E-04
                                              FLOW ERR (QIN-QOUT-DV) = -0.9536743E-06 [L3/T]




 >>>>>>>>>>>>>>>>>>>>>>>>>>>>>>>>>>>>>>>>>>>>>>>>>>>>>>>FOR COMPONENT NO. 01<<<<<<<<<<<<<<<<<<<<<<<<<<<<<<<<<<<<<<<<<<<<<<<<<<<<<<<


                                            -------------------------------------------
                                                      TRANSPORT STEP NO.  157
                                            -------------------------------------------

 TOTAL ELAPSED TIME SINCE BEGINNING OF SIMULATION =   28260.00    D   
 .....................................................................

                     CUMULATIVE MASS BUDGETS AT END OF TRANSPORT STEP  157, TIME STEP    1, STRESS PERIOD    1
                     -----------------------------------------------------------------------------------------

                                                             IN                           OUT
                                                      ----------------             ----------------
                               CONSTANT CONCENTRATION:    0.000000                    0.000000    
                                        CONSTANT HEAD:    352.7473                   -195.9028    
                                               STREAM:    0.000000                   -156.8491    
                               MASS STOR (FLOW MODEL):   0.4765387E-02              -0.6452352E-07
                                MASS STORAGE (SOLUTE):    0.000000                    0.000000    
                            ---------------------------------------------------------------------------
                                              [TOTAL]:    352.7520     KG            -352.7519     KG  

                                                          NET (IN - OUT):   0.1220703E-03
                                                   DISCREPANCY (PERCENT):   0.3460514E-04
     2 CALLS TO GCG PACKAGE FOR TRANSPORT TIME STEP   158 IN FLOW TIME STEP     1 STRESS PERIOD     1
      2 TOTAL ITERATIONS
  MAXIMUM CONCENTRATION CHANGES FOR EACH ITERATION:
  MAX. CHANGE LAYER,ROW,COL MAX. CHANGE LAYER,ROW,COL MAX. CHANGE LAYER,ROW,COL MAX. CHANGE LAYER,ROW,COL MAX. CHANGE LAYER,ROW,COL
 ------------------------------------------------------------------------------------------------------------------------------------
    0.000     (  1,  1,  1)   0.000     (  1,  1,  1)


                     STREAM MASS BUDGETS AT END OF TRANSPORT STEP  158, TIME STEP    1, STRESS PERIOD    1 FOR COMPONENT   1
                     -------------------------------------------------------------------------------------------------------

                                         CUMULATIVE MASS [M]                                     MASS FOR THIS TIME STEP [M]
                                         -------------------                                    --------------
                      STREAM DEPLETION =  0.4134269E-04                      STREAM DEPLETION =  0.1180022E-07
                      INFLOW TO STREAM =   1315.349                          INFLOW TO STREAM =   8.325000    
                          GW TO STREAM =   157.8481                              GW TO STREAM =  0.9990391    
                         PRECIPITATION =   0.000000                             PRECIPITATION =   0.000000    
                                RUNOFF =   0.000000                                    RUNOFF =   0.000000    
                CONSTANT CONCENTRATION =   0.000000                    CONSTANT CONCENTRATION =   0.000000    
                             MASS GAIN =   0.000000                                 MASS GAIN =   0.000000    
                                         -------------------                                    --------------
                              TOTAL IN =   1473.198                                  TOTAL IN =   9.324039    

                   STREAM ACCUMULATION =  0.1227054E-02                   STREAM ACCUMULATION =  0.2523803E-06
                        STREAM OUTFLOW =   1473.200                            STREAM OUTFLOW =   9.324040    
                          STREAM TO GW =   0.000000                              STREAM TO GW =   0.000000    
                CONSTANT CONCENTRATION =   0.000000                    CONSTANT CONCENTRATION =   0.000000    
                           EVAPORATION =   0.000000                               EVAPORATION =   0.000000    
                             MASS LOSS =   0.000000                                 MASS LOSS =   0.000000    
                                         -------------------                                    --------------
                             TOTAL OUT =   1473.202                                 TOTAL OUT =   9.324040    

                        NET (IN - OUT) = -0.4150391E-02                        NET (IN - OUT) = -0.1907349E-05
                 DISCREPANCY (PERCENT) = -0.2817263E-03                 DISCREPANCY (PERCENT) = -0.2045625E-04
                                              FLOW ERR (QIN-QOUT-DV) = -0.9536743E-06 [L3/T]




 >>>>>>>>>>>>>>>>>>>>>>>>>>>>>>>>>>>>>>>>>>>>>>>>>>>>>>>FOR COMPONENT NO. 01<<<<<<<<<<<<<<<<<<<<<<<<<<<<<<<<<<<<<<<<<<<<<<<<<<<<<<<


                                            -------------------------------------------
                                                      TRANSPORT STEP NO.  158
                                            -------------------------------------------

 TOTAL ELAPSED TIME SINCE BEGINNING OF SIMULATION =   28440.00    D   
 .....................................................................

                     CUMULATIVE MASS BUDGETS AT END OF TRANSPORT STEP  158, TIME STEP    1, STRESS PERIOD    1
                     -----------------------------------------------------------------------------------------

                                                             IN                           OUT
                                                      ----------------             ----------------
                               CONSTANT CONCENTRATION:    0.000000                    0.000000    
                                        CONSTANT HEAD:    354.9940                   -197.1506    
                                               STREAM:    0.000000                   -157.8481    
                               MASS STOR (FLOW MODEL):   0.4795739E-02              -0.6493450E-07
                                MASS STORAGE (SOLUTE):    0.000000                    0.000000    
                            ---------------------------------------------------------------------------
                                              [TOTAL]:    354.9988     KG            -354.9987     KG  

                                                          NET (IN - OUT):   0.1220703E-03
                                                   DISCREPANCY (PERCENT):   0.3438612E-04
     2 CALLS TO GCG PACKAGE FOR TRANSPORT TIME STEP   159 IN FLOW TIME STEP     1 STRESS PERIOD     1
      2 TOTAL ITERATIONS
  MAXIMUM CONCENTRATION CHANGES FOR EACH ITERATION:
  MAX. CHANGE LAYER,ROW,COL MAX. CHANGE LAYER,ROW,COL MAX. CHANGE LAYER,ROW,COL MAX. CHANGE LAYER,ROW,COL MAX. CHANGE LAYER,ROW,COL
 ------------------------------------------------------------------------------------------------------------------------------------
    0.000     (  1,  1,  1)   0.000     (  1,  1,  1)


                     STREAM MASS BUDGETS AT END OF TRANSPORT STEP  159, TIME STEP    1, STRESS PERIOD    1 FOR COMPONENT   1
                     -------------------------------------------------------------------------------------------------------

                                         CUMULATIVE MASS [M]                                     MASS FOR THIS TIME STEP [M]
                                         -------------------                                    --------------
                      STREAM DEPLETION =  0.4135423E-04                      STREAM DEPLETION =  0.1153887E-07
                      INFLOW TO STREAM =   1323.674                          INFLOW TO STREAM =   8.325000    
                          GW TO STREAM =   158.8472                              GW TO STREAM =  0.9990391    
                         PRECIPITATION =   0.000000                             PRECIPITATION =   0.000000    
                                RUNOFF =   0.000000                                    RUNOFF =   0.000000    
                CONSTANT CONCENTRATION =   0.000000                    CONSTANT CONCENTRATION =   0.000000    
                             MASS GAIN =   0.000000                                 MASS GAIN =   0.000000    
                                         -------------------                                    --------------
                              TOTAL IN =   1482.521                                  TOTAL IN =   9.324039    

                   STREAM ACCUMULATION =  0.1227289E-02                   STREAM ACCUMULATION =  0.2347681E-06
                        STREAM OUTFLOW =   1482.525                            STREAM OUTFLOW =   9.324040    
                          STREAM TO GW =   0.000000                              STREAM TO GW =   0.000000    
                CONSTANT CONCENTRATION =   0.000000                    CONSTANT CONCENTRATION =   0.000000    
                           EVAPORATION =   0.000000                               EVAPORATION =   0.000000    
                             MASS LOSS =   0.000000                                 MASS LOSS =   0.000000    
                                         -------------------                                    --------------
                             TOTAL OUT =   1482.526                                 TOTAL OUT =   9.324040    

                        NET (IN - OUT) = -0.4272461E-02                        NET (IN - OUT) = -0.1907349E-05
                 DISCREPANCY (PERCENT) = -0.2881884E-03                 DISCREPANCY (PERCENT) = -0.2045625E-04
                                              FLOW ERR (QIN-QOUT-DV) = -0.9536743E-06 [L3/T]




 >>>>>>>>>>>>>>>>>>>>>>>>>>>>>>>>>>>>>>>>>>>>>>>>>>>>>>>FOR COMPONENT NO. 01<<<<<<<<<<<<<<<<<<<<<<<<<<<<<<<<<<<<<<<<<<<<<<<<<<<<<<<


                                            -------------------------------------------
                                                      TRANSPORT STEP NO.  159
                                            -------------------------------------------

 TOTAL ELAPSED TIME SINCE BEGINNING OF SIMULATION =   28620.00    D   
 .....................................................................

                     CUMULATIVE MASS BUDGETS AT END OF TRANSPORT STEP  159, TIME STEP    1, STRESS PERIOD    1
                     -----------------------------------------------------------------------------------------

                                                             IN                           OUT
                                                      ----------------             ----------------
                               CONSTANT CONCENTRATION:    0.000000                    0.000000    
                                        CONSTANT HEAD:    357.2408                   -198.3984    
                                               STREAM:    0.000000                   -158.8472    
                               MASS STOR (FLOW MODEL):   0.4826092E-02              -0.6534547E-07
                                MASS STORAGE (SOLUTE):    0.000000                    0.000000    
                            ---------------------------------------------------------------------------
                                              [TOTAL]:    357.2457     KG            -357.2455     KG  

                                                          NET (IN - OUT):   0.1220703E-03
                                                   DISCREPANCY (PERCENT):   0.3416986E-04
     2 CALLS TO GCG PACKAGE FOR TRANSPORT TIME STEP   160 IN FLOW TIME STEP     1 STRESS PERIOD     1
      2 TOTAL ITERATIONS
  MAXIMUM CONCENTRATION CHANGES FOR EACH ITERATION:
  MAX. CHANGE LAYER,ROW,COL MAX. CHANGE LAYER,ROW,COL MAX. CHANGE LAYER,ROW,COL MAX. CHANGE LAYER,ROW,COL MAX. CHANGE LAYER,ROW,COL
 ------------------------------------------------------------------------------------------------------------------------------------
    0.000     (  1,  1,  1)   0.000     (  1,  1,  1)


                     STREAM MASS BUDGETS AT END OF TRANSPORT STEP  160, TIME STEP    1, STRESS PERIOD    1 FOR COMPONENT   1
                     -------------------------------------------------------------------------------------------------------

                                         CUMULATIVE MASS [M]                                     MASS FOR THIS TIME STEP [M]
                                         -------------------                                    --------------
                      STREAM DEPLETION =  0.4136570E-04                      STREAM DEPLETION =  0.1146626E-07
                      INFLOW TO STREAM =   1331.999                          INFLOW TO STREAM =   8.325000    
                          GW TO STREAM =   159.8462                              GW TO STREAM =  0.9990391    
                         PRECIPITATION =   0.000000                             PRECIPITATION =   0.000000    
                                RUNOFF =   0.000000                                    RUNOFF =   0.000000    
                CONSTANT CONCENTRATION =   0.000000                    CONSTANT CONCENTRATION =   0.000000    
                             MASS GAIN =   0.000000                                 MASS GAIN =   0.000000    
                                         -------------------                                    --------------
                              TOTAL IN =   1491.845                                  TOTAL IN =   9.324039    

                   STREAM ACCUMULATION =  0.1227508E-02                   STREAM ACCUMULATION =  0.2185195E-06
                        STREAM OUTFLOW =   1491.849                            STREAM OUTFLOW =   9.324040    
                          STREAM TO GW =   0.000000                              STREAM TO GW =   0.000000    
                CONSTANT CONCENTRATION =   0.000000                    CONSTANT CONCENTRATION =   0.000000    
                           EVAPORATION =   0.000000                               EVAPORATION =   0.000000    
                             MASS LOSS =   0.000000                                 MASS LOSS =   0.000000    
                                         -------------------                                    --------------
                             TOTAL OUT =   1491.850                                 TOTAL OUT =   9.324040    

                        NET (IN - OUT) = -0.4394531E-02                        NET (IN - OUT) = -0.1907349E-05
                 DISCREPANCY (PERCENT) = -0.2945697E-03                 DISCREPANCY (PERCENT) = -0.2045625E-04
                                              FLOW ERR (QIN-QOUT-DV) = -0.9536743E-06 [L3/T]




 >>>>>>>>>>>>>>>>>>>>>>>>>>>>>>>>>>>>>>>>>>>>>>>>>>>>>>>FOR COMPONENT NO. 01<<<<<<<<<<<<<<<<<<<<<<<<<<<<<<<<<<<<<<<<<<<<<<<<<<<<<<<


                                            -------------------------------------------
                                                      TRANSPORT STEP NO.  160
                                            -------------------------------------------

 TOTAL ELAPSED TIME SINCE BEGINNING OF SIMULATION =   28800.00    D   
 .....................................................................

                     CUMULATIVE MASS BUDGETS AT END OF TRANSPORT STEP  160, TIME STEP    1, STRESS PERIOD    1
                     -----------------------------------------------------------------------------------------

                                                             IN                           OUT
                                                      ----------------             ----------------
                               CONSTANT CONCENTRATION:    0.000000                    0.000000    
                                        CONSTANT HEAD:    359.4876                   -199.6461    
                                               STREAM:    0.000000                   -159.8462    
                               MASS STOR (FLOW MODEL):   0.4856445E-02              -0.6575645E-07
                                MASS STORAGE (SOLUTE):    0.000000                    0.000000    
                            ---------------------------------------------------------------------------
                                              [TOTAL]:    359.4925     KG            -359.4924     KG  

                                                          NET (IN - OUT):   0.1220703E-03
                                                   DISCREPANCY (PERCENT):   0.3395629E-04
     2 CALLS TO GCG PACKAGE FOR TRANSPORT TIME STEP   161 IN FLOW TIME STEP     1 STRESS PERIOD     1
      2 TOTAL ITERATIONS
  MAXIMUM CONCENTRATION CHANGES FOR EACH ITERATION:
  MAX. CHANGE LAYER,ROW,COL MAX. CHANGE LAYER,ROW,COL MAX. CHANGE LAYER,ROW,COL MAX. CHANGE LAYER,ROW,COL MAX. CHANGE LAYER,ROW,COL
 ------------------------------------------------------------------------------------------------------------------------------------
    0.000     (  1,  1,  1)   0.000     (  1,  1,  1)


                     STREAM MASS BUDGETS AT END OF TRANSPORT STEP  161, TIME STEP    1, STRESS PERIOD    1 FOR COMPONENT   1
                     -------------------------------------------------------------------------------------------------------

                                         CUMULATIVE MASS [M]                                     MASS FOR THIS TIME STEP [M]
                                         -------------------                                    --------------
                      STREAM DEPLETION =  0.4137693E-04                      STREAM DEPLETION =  0.1122743E-07
                      INFLOW TO STREAM =   1340.324                          INFLOW TO STREAM =   8.325000    
                          GW TO STREAM =   160.8452                              GW TO STREAM =  0.9990391    
                         PRECIPITATION =   0.000000                             PRECIPITATION =   0.000000    
                                RUNOFF =   0.000000                                    RUNOFF =   0.000000    
                CONSTANT CONCENTRATION =   0.000000                    CONSTANT CONCENTRATION =   0.000000    
                             MASS GAIN =   0.000000                                 MASS GAIN =   0.000000    
                                         -------------------                                    --------------
                              TOTAL IN =   1501.170                                  TOTAL IN =   9.324039    

                   STREAM ACCUMULATION =  0.1227711E-02                   STREAM ACCUMULATION =  0.2032218E-06
                        STREAM OUTFLOW =   1501.173                            STREAM OUTFLOW =   9.324040    
                          STREAM TO GW =   0.000000                              STREAM TO GW =   0.000000    
                CONSTANT CONCENTRATION =   0.000000                    CONSTANT CONCENTRATION =   0.000000    
                           EVAPORATION =   0.000000                               EVAPORATION =   0.000000    
                             MASS LOSS =   0.000000                                 MASS LOSS =   0.000000    
                                         -------------------                                    --------------
                             TOTAL OUT =   1501.174                                 TOTAL OUT =   9.324040    

                        NET (IN - OUT) = -0.4394531E-02                        NET (IN - OUT) = -0.1907349E-05
                 DISCREPANCY (PERCENT) = -0.2927401E-03                 DISCREPANCY (PERCENT) = -0.2045625E-04
                                              FLOW ERR (QIN-QOUT-DV) = -0.9536743E-06 [L3/T]




 >>>>>>>>>>>>>>>>>>>>>>>>>>>>>>>>>>>>>>>>>>>>>>>>>>>>>>>FOR COMPONENT NO. 01<<<<<<<<<<<<<<<<<<<<<<<<<<<<<<<<<<<<<<<<<<<<<<<<<<<<<<<


                                            -------------------------------------------
                                                      TRANSPORT STEP NO.  161
                                            -------------------------------------------

 TOTAL ELAPSED TIME SINCE BEGINNING OF SIMULATION =   28980.00    D   
 .....................................................................

                     CUMULATIVE MASS BUDGETS AT END OF TRANSPORT STEP  161, TIME STEP    1, STRESS PERIOD    1
                     -----------------------------------------------------------------------------------------

                                                             IN                           OUT
                                                      ----------------             ----------------
                               CONSTANT CONCENTRATION:    0.000000                    0.000000    
                                        CONSTANT HEAD:    361.7344                   -200.8939    
                                               STREAM:    0.000000                   -160.8452    
                               MASS STOR (FLOW MODEL):   0.4886798E-02              -0.6616743E-07
                                MASS STORAGE (SOLUTE):    0.000000                    0.000000    
                            ---------------------------------------------------------------------------
                                              [TOTAL]:    361.7393     KG            -361.7392     KG  

                                                          NET (IN - OUT):   0.1220703E-03
                                                   DISCREPANCY (PERCENT):   0.3374539E-04
     2 CALLS TO GCG PACKAGE FOR TRANSPORT TIME STEP   162 IN FLOW TIME STEP     1 STRESS PERIOD     1
      2 TOTAL ITERATIONS
  MAXIMUM CONCENTRATION CHANGES FOR EACH ITERATION:
  MAX. CHANGE LAYER,ROW,COL MAX. CHANGE LAYER,ROW,COL MAX. CHANGE LAYER,ROW,COL MAX. CHANGE LAYER,ROW,COL MAX. CHANGE LAYER,ROW,COL
 ------------------------------------------------------------------------------------------------------------------------------------
    0.000     (  1,  1,  1)   0.000     (  1,  1,  1)


                     STREAM MASS BUDGETS AT END OF TRANSPORT STEP  162, TIME STEP    1, STRESS PERIOD    1 FOR COMPONENT   1
                     -------------------------------------------------------------------------------------------------------

                                         CUMULATIVE MASS [M]                                     MASS FOR THIS TIME STEP [M]
                                         -------------------                                    --------------
                      STREAM DEPLETION =  0.4138810E-04                      STREAM DEPLETION =  0.1117143E-07
                      INFLOW TO STREAM =   1348.649                          INFLOW TO STREAM =   8.325000    
                          GW TO STREAM =   161.8443                              GW TO STREAM =  0.9990391    
                         PRECIPITATION =   0.000000                             PRECIPITATION =   0.000000    
                                RUNOFF =   0.000000                                    RUNOFF =   0.000000    
                CONSTANT CONCENTRATION =   0.000000                    CONSTANT CONCENTRATION =   0.000000    
                             MASS GAIN =   0.000000                                 MASS GAIN =   0.000000    
                                         -------------------                                    --------------
                              TOTAL IN =   1510.494                                  TOTAL IN =   9.324039    

                   STREAM ACCUMULATION =  0.1227900E-02                   STREAM ACCUMULATION =  0.1891386E-06
                        STREAM OUTFLOW =   1510.497                            STREAM OUTFLOW =   9.324040    
                          STREAM TO GW =   0.000000                              STREAM TO GW =   0.000000    
                CONSTANT CONCENTRATION =   0.000000                    CONSTANT CONCENTRATION =   0.000000    
                           EVAPORATION =   0.000000                               EVAPORATION =   0.000000    
                             MASS LOSS =   0.000000                                 MASS LOSS =   0.000000    
                                         -------------------                                    --------------
                             TOTAL OUT =   1510.498                                 TOTAL OUT =   9.324040    

                        NET (IN - OUT) = -0.4516602E-02                        NET (IN - OUT) = -0.1907349E-05
                 DISCREPANCY (PERCENT) = -0.2990145E-03                 DISCREPANCY (PERCENT) = -0.2045625E-04
                                              FLOW ERR (QIN-QOUT-DV) = -0.9536743E-06 [L3/T]




 >>>>>>>>>>>>>>>>>>>>>>>>>>>>>>>>>>>>>>>>>>>>>>>>>>>>>>>FOR COMPONENT NO. 01<<<<<<<<<<<<<<<<<<<<<<<<<<<<<<<<<<<<<<<<<<<<<<<<<<<<<<<


                                            -------------------------------------------
                                                      TRANSPORT STEP NO.  162
                                            -------------------------------------------

 TOTAL ELAPSED TIME SINCE BEGINNING OF SIMULATION =   29160.00    D   
 .....................................................................

                     CUMULATIVE MASS BUDGETS AT END OF TRANSPORT STEP  162, TIME STEP    1, STRESS PERIOD    1
                     -----------------------------------------------------------------------------------------

                                                             IN                           OUT
                                                      ----------------             ----------------
                               CONSTANT CONCENTRATION:    0.000000                    0.000000    
                                        CONSTANT HEAD:    363.9812                   -202.1417    
                                               STREAM:    0.000000                   -161.8443    
                               MASS STOR (FLOW MODEL):   0.4917150E-02              -0.6657841E-07
                                MASS STORAGE (SOLUTE):    0.000000                    0.000000    
                            ---------------------------------------------------------------------------
                                              [TOTAL]:    363.9861     KG            -363.9860     KG  

                                                          NET (IN - OUT):   0.1220703E-03
                                                   DISCREPANCY (PERCENT):   0.3353708E-04
     2 CALLS TO GCG PACKAGE FOR TRANSPORT TIME STEP   163 IN FLOW TIME STEP     1 STRESS PERIOD     1
      2 TOTAL ITERATIONS
  MAXIMUM CONCENTRATION CHANGES FOR EACH ITERATION:
  MAX. CHANGE LAYER,ROW,COL MAX. CHANGE LAYER,ROW,COL MAX. CHANGE LAYER,ROW,COL MAX. CHANGE LAYER,ROW,COL MAX. CHANGE LAYER,ROW,COL
 ------------------------------------------------------------------------------------------------------------------------------------
    0.000     (  1,  1,  1)   0.000     (  1,  1,  1)


                     STREAM MASS BUDGETS AT END OF TRANSPORT STEP  163, TIME STEP    1, STRESS PERIOD    1 FOR COMPONENT   1
                     -------------------------------------------------------------------------------------------------------

                                         CUMULATIVE MASS [M]                                     MASS FOR THIS TIME STEP [M]
                                         -------------------                                    --------------
                      STREAM DEPLETION =  0.4139902E-04                      STREAM DEPLETION =  0.1091779E-07
                      INFLOW TO STREAM =   1356.974                          INFLOW TO STREAM =   8.325000    
                          GW TO STREAM =   162.8433                              GW TO STREAM =  0.9990391    
                         PRECIPITATION =   0.000000                             PRECIPITATION =   0.000000    
                                RUNOFF =   0.000000                                    RUNOFF =   0.000000    
                CONSTANT CONCENTRATION =   0.000000                    CONSTANT CONCENTRATION =   0.000000    
                             MASS GAIN =   0.000000                                 MASS GAIN =   0.000000    
                                         -------------------                                    --------------
                              TOTAL IN =   1519.818                                  TOTAL IN =   9.324039    

                   STREAM ACCUMULATION =  0.1228076E-02                   STREAM ACCUMULATION =  0.1758390E-06
                        STREAM OUTFLOW =   1519.821                            STREAM OUTFLOW =   9.324040    
                          STREAM TO GW =   0.000000                              STREAM TO GW =   0.000000    
                CONSTANT CONCENTRATION =   0.000000                    CONSTANT CONCENTRATION =   0.000000    
                           EVAPORATION =   0.000000                               EVAPORATION =   0.000000    
                             MASS LOSS =   0.000000                                 MASS LOSS =   0.000000    
                                         -------------------                                    --------------
                             TOTAL OUT =   1519.822                                 TOTAL OUT =   9.324040    

                        NET (IN - OUT) = -0.4638672E-02                        NET (IN - OUT) = -0.1907349E-05
                 DISCREPANCY (PERCENT) = -0.3052120E-03                 DISCREPANCY (PERCENT) = -0.2045625E-04
                                              FLOW ERR (QIN-QOUT-DV) = -0.9536743E-06 [L3/T]




 >>>>>>>>>>>>>>>>>>>>>>>>>>>>>>>>>>>>>>>>>>>>>>>>>>>>>>>FOR COMPONENT NO. 01<<<<<<<<<<<<<<<<<<<<<<<<<<<<<<<<<<<<<<<<<<<<<<<<<<<<<<<


                                            -------------------------------------------
                                                      TRANSPORT STEP NO.  163
                                            -------------------------------------------

 TOTAL ELAPSED TIME SINCE BEGINNING OF SIMULATION =   29340.00    D   
 .....................................................................

                     CUMULATIVE MASS BUDGETS AT END OF TRANSPORT STEP  163, TIME STEP    1, STRESS PERIOD    1
                     -----------------------------------------------------------------------------------------

                                                             IN                           OUT
                                                      ----------------             ----------------
                               CONSTANT CONCENTRATION:    0.000000                    0.000000    
                                        CONSTANT HEAD:    366.2280                   -203.3895    
                                               STREAM:    0.000000                   -162.8433    
                               MASS STOR (FLOW MODEL):   0.4947503E-02              -0.6698939E-07
                                MASS STORAGE (SOLUTE):    0.000000                    0.000000    
                            ---------------------------------------------------------------------------
                                              [TOTAL]:    366.2330     KG            -366.2328     KG  

                                                          NET (IN - OUT):   0.1220703E-03
                                                   DISCREPANCY (PERCENT):   0.3333133E-04
     2 CALLS TO GCG PACKAGE FOR TRANSPORT TIME STEP   164 IN FLOW TIME STEP     1 STRESS PERIOD     1
      2 TOTAL ITERATIONS
  MAXIMUM CONCENTRATION CHANGES FOR EACH ITERATION:
  MAX. CHANGE LAYER,ROW,COL MAX. CHANGE LAYER,ROW,COL MAX. CHANGE LAYER,ROW,COL MAX. CHANGE LAYER,ROW,COL MAX. CHANGE LAYER,ROW,COL
 ------------------------------------------------------------------------------------------------------------------------------------
    0.000     (  1,  1,  1)   0.000     (  1,  1,  1)


                     STREAM MASS BUDGETS AT END OF TRANSPORT STEP  164, TIME STEP    1, STRESS PERIOD    1 FOR COMPONENT   1
                     -------------------------------------------------------------------------------------------------------

                                         CUMULATIVE MASS [M]                                     MASS FOR THIS TIME STEP [M]
                                         -------------------                                    --------------
                      STREAM DEPLETION =  0.4140990E-04                      STREAM DEPLETION =  0.1088840E-07
                      INFLOW TO STREAM =   1365.299                          INFLOW TO STREAM =   8.325000    
                          GW TO STREAM =   163.8424                              GW TO STREAM =  0.9990391    
                         PRECIPITATION =   0.000000                             PRECIPITATION =   0.000000    
                                RUNOFF =   0.000000                                    RUNOFF =   0.000000    
                CONSTANT CONCENTRATION =   0.000000                    CONSTANT CONCENTRATION =   0.000000    
                             MASS GAIN =   0.000000                                 MASS GAIN =   0.000000    
                                         -------------------                                    --------------
                              TOTAL IN =   1529.141                                  TOTAL IN =   9.324039    

                   STREAM ACCUMULATION =  0.1228240E-02                   STREAM ACCUMULATION =  0.1636677E-06
                        STREAM OUTFLOW =   1529.145                            STREAM OUTFLOW =   9.324040    
                          STREAM TO GW =   0.000000                              STREAM TO GW =   0.000000    
                CONSTANT CONCENTRATION =   0.000000                    CONSTANT CONCENTRATION =   0.000000    
                           EVAPORATION =   0.000000                               EVAPORATION =   0.000000    
                             MASS LOSS =   0.000000                                 MASS LOSS =   0.000000    
                                         -------------------                                    --------------
                             TOTAL OUT =   1529.146                                 TOTAL OUT =   9.324040    

                        NET (IN - OUT) = -0.4760742E-02                        NET (IN - OUT) = -0.1907349E-05
                 DISCREPANCY (PERCENT) = -0.3113338E-03                 DISCREPANCY (PERCENT) = -0.2045625E-04
                                              FLOW ERR (QIN-QOUT-DV) = -0.9536743E-06 [L3/T]




 >>>>>>>>>>>>>>>>>>>>>>>>>>>>>>>>>>>>>>>>>>>>>>>>>>>>>>>FOR COMPONENT NO. 01<<<<<<<<<<<<<<<<<<<<<<<<<<<<<<<<<<<<<<<<<<<<<<<<<<<<<<<


                                            -------------------------------------------
                                                      TRANSPORT STEP NO.  164
                                            -------------------------------------------

 TOTAL ELAPSED TIME SINCE BEGINNING OF SIMULATION =   29520.00    D   
 .....................................................................

                     CUMULATIVE MASS BUDGETS AT END OF TRANSPORT STEP  164, TIME STEP    1, STRESS PERIOD    1
                     -----------------------------------------------------------------------------------------

                                                             IN                           OUT
                                                      ----------------             ----------------
                               CONSTANT CONCENTRATION:    0.000000                    0.000000    
                                        CONSTANT HEAD:    368.4748                   -204.6373    
                                               STREAM:    0.000000                   -163.8424    
                               MASS STOR (FLOW MODEL):   0.4977856E-02              -0.6740036E-07
                                MASS STORAGE (SOLUTE):    0.000000                    0.000000    
                            ---------------------------------------------------------------------------
                                              [TOTAL]:    368.4798     KG            -368.4797     KG  

                                                          NET (IN - OUT):   0.1220703E-03
                                                   DISCREPANCY (PERCENT):   0.3312809E-04
     2 CALLS TO GCG PACKAGE FOR TRANSPORT TIME STEP   165 IN FLOW TIME STEP     1 STRESS PERIOD     1
      2 TOTAL ITERATIONS
  MAXIMUM CONCENTRATION CHANGES FOR EACH ITERATION:
  MAX. CHANGE LAYER,ROW,COL MAX. CHANGE LAYER,ROW,COL MAX. CHANGE LAYER,ROW,COL MAX. CHANGE LAYER,ROW,COL MAX. CHANGE LAYER,ROW,COL
 ------------------------------------------------------------------------------------------------------------------------------------
    0.000     (  1,  1,  1)   0.000     (  1,  1,  1)


                     STREAM MASS BUDGETS AT END OF TRANSPORT STEP  165, TIME STEP    1, STRESS PERIOD    1 FOR COMPONENT   1
                     -------------------------------------------------------------------------------------------------------

                                         CUMULATIVE MASS [M]                                     MASS FOR THIS TIME STEP [M]
                                         -------------------                                    --------------
                      STREAM DEPLETION =  0.4142056E-04                      STREAM DEPLETION =  0.1065299E-07
                      INFLOW TO STREAM =   1373.624                          INFLOW TO STREAM =   8.325000    
                          GW TO STREAM =   164.8414                              GW TO STREAM =  0.9990391    
                         PRECIPITATION =   0.000000                             PRECIPITATION =   0.000000    
                                RUNOFF =   0.000000                                    RUNOFF =   0.000000    
                CONSTANT CONCENTRATION =   0.000000                    CONSTANT CONCENTRATION =   0.000000    
                             MASS GAIN =   0.000000                                 MASS GAIN =   0.000000    
                                         -------------------                                    --------------
                              TOTAL IN =   1538.465                                  TOTAL IN =   9.324039    

                   STREAM ACCUMULATION =  0.1228392E-02                   STREAM ACCUMULATION =  0.1521492E-06
                        STREAM OUTFLOW =   1538.469                            STREAM OUTFLOW =   9.324040    
                          STREAM TO GW =   0.000000                              STREAM TO GW =   0.000000    
                CONSTANT CONCENTRATION =   0.000000                    CONSTANT CONCENTRATION =   0.000000    
                           EVAPORATION =   0.000000                               EVAPORATION =   0.000000    
                             MASS LOSS =   0.000000                                 MASS LOSS =   0.000000    
                                         -------------------                                    --------------
                             TOTAL OUT =   1538.470                                 TOTAL OUT =   9.324040    

                        NET (IN - OUT) = -0.4882812E-02                        NET (IN - OUT) = -0.1907349E-05
                 DISCREPANCY (PERCENT) = -0.3173815E-03                 DISCREPANCY (PERCENT) = -0.2045625E-04
                                              FLOW ERR (QIN-QOUT-DV) = -0.9536743E-06 [L3/T]




 >>>>>>>>>>>>>>>>>>>>>>>>>>>>>>>>>>>>>>>>>>>>>>>>>>>>>>>FOR COMPONENT NO. 01<<<<<<<<<<<<<<<<<<<<<<<<<<<<<<<<<<<<<<<<<<<<<<<<<<<<<<<


                                            -------------------------------------------
                                                      TRANSPORT STEP NO.  165
                                            -------------------------------------------

 TOTAL ELAPSED TIME SINCE BEGINNING OF SIMULATION =   29700.00    D   
 .....................................................................

                     CUMULATIVE MASS BUDGETS AT END OF TRANSPORT STEP  165, TIME STEP    1, STRESS PERIOD    1
                     -----------------------------------------------------------------------------------------

                                                             IN                           OUT
                                                      ----------------             ----------------
                               CONSTANT CONCENTRATION:    0.000000                    0.000000    
                                        CONSTANT HEAD:    370.7216                   -205.8851    
                                               STREAM:    0.000000                   -164.8414    
                               MASS STOR (FLOW MODEL):   0.5008209E-02              -0.6781134E-07
                                MASS STORAGE (SOLUTE):    0.000000                    0.000000    
                            ---------------------------------------------------------------------------
                                              [TOTAL]:    370.7266     KG            -370.7265     KG  

                                                          NET (IN - OUT):   0.1220703E-03
                                                   DISCREPANCY (PERCENT):   0.3292732E-04
     2 CALLS TO GCG PACKAGE FOR TRANSPORT TIME STEP   166 IN FLOW TIME STEP     1 STRESS PERIOD     1
      2 TOTAL ITERATIONS
  MAXIMUM CONCENTRATION CHANGES FOR EACH ITERATION:
  MAX. CHANGE LAYER,ROW,COL MAX. CHANGE LAYER,ROW,COL MAX. CHANGE LAYER,ROW,COL MAX. CHANGE LAYER,ROW,COL MAX. CHANGE LAYER,ROW,COL
 ------------------------------------------------------------------------------------------------------------------------------------
    0.000     (  1,  1,  1)   0.000     (  1,  1,  1)


                     STREAM MASS BUDGETS AT END OF TRANSPORT STEP  166, TIME STEP    1, STRESS PERIOD    1 FOR COMPONENT   1
                     -------------------------------------------------------------------------------------------------------

                                         CUMULATIVE MASS [M]                                     MASS FOR THIS TIME STEP [M]
                                         -------------------                                    --------------
                      STREAM DEPLETION =  0.4143118E-04                      STREAM DEPLETION =  0.1062497E-07
                      INFLOW TO STREAM =   1381.949                          INFLOW TO STREAM =   8.325000    
                          GW TO STREAM =   165.8404                              GW TO STREAM =  0.9990391    
                         PRECIPITATION =   0.000000                             PRECIPITATION =   0.000000    
                                RUNOFF =   0.000000                                    RUNOFF =   0.000000    
                CONSTANT CONCENTRATION =   0.000000                    CONSTANT CONCENTRATION =   0.000000    
                             MASS GAIN =   0.000000                                 MASS GAIN =   0.000000    
                                         -------------------                                    --------------
                              TOTAL IN =   1547.789                                  TOTAL IN =   9.324039    

                   STREAM ACCUMULATION =  0.1228533E-02                   STREAM ACCUMULATION =  0.1416281E-06
                        STREAM OUTFLOW =   1547.793                            STREAM OUTFLOW =   9.324040    
                          STREAM TO GW =   0.000000                              STREAM TO GW =   0.000000    
                CONSTANT CONCENTRATION =   0.000000                    CONSTANT CONCENTRATION =   0.000000    
                           EVAPORATION =   0.000000                               EVAPORATION =   0.000000    
                             MASS LOSS =   0.000000                                 MASS LOSS =   0.000000    
                                         -------------------                                    --------------
                             TOTAL OUT =   1547.794                                 TOTAL OUT =   9.324040    

                        NET (IN - OUT) = -0.5004883E-02                        NET (IN - OUT) = -0.1907349E-05
                 DISCREPANCY (PERCENT) = -0.3233563E-03                 DISCREPANCY (PERCENT) = -0.2045625E-04
                                              FLOW ERR (QIN-QOUT-DV) = -0.9536743E-06 [L3/T]




 >>>>>>>>>>>>>>>>>>>>>>>>>>>>>>>>>>>>>>>>>>>>>>>>>>>>>>>FOR COMPONENT NO. 01<<<<<<<<<<<<<<<<<<<<<<<<<<<<<<<<<<<<<<<<<<<<<<<<<<<<<<<


                                            -------------------------------------------
                                                      TRANSPORT STEP NO.  166
                                            -------------------------------------------

 TOTAL ELAPSED TIME SINCE BEGINNING OF SIMULATION =   29880.00    D   
 .....................................................................

                     CUMULATIVE MASS BUDGETS AT END OF TRANSPORT STEP  166, TIME STEP    1, STRESS PERIOD    1
                     -----------------------------------------------------------------------------------------

                                                             IN                           OUT
                                                      ----------------             ----------------
                               CONSTANT CONCENTRATION:    0.000000                    0.000000    
                                        CONSTANT HEAD:    372.9684                   -207.1329    
                                               STREAM:    0.000000                   -165.8404    
                               MASS STOR (FLOW MODEL):   0.5038561E-02              -0.6822232E-07
                                MASS STORAGE (SOLUTE):    0.000000                    0.000000    
                            ---------------------------------------------------------------------------
                                              [TOTAL]:    372.9734     KG            -372.9733     KG  

                                                          NET (IN - OUT):   0.1220703E-03
                                                   DISCREPANCY (PERCENT):   0.3272896E-04
     2 CALLS TO GCG PACKAGE FOR TRANSPORT TIME STEP   167 IN FLOW TIME STEP     1 STRESS PERIOD     1
      2 TOTAL ITERATIONS
  MAXIMUM CONCENTRATION CHANGES FOR EACH ITERATION:
  MAX. CHANGE LAYER,ROW,COL MAX. CHANGE LAYER,ROW,COL MAX. CHANGE LAYER,ROW,COL MAX. CHANGE LAYER,ROW,COL MAX. CHANGE LAYER,ROW,COL
 ------------------------------------------------------------------------------------------------------------------------------------
    0.000     (  1,  1,  1)   0.000     (  1,  1,  1)


                     STREAM MASS BUDGETS AT END OF TRANSPORT STEP  167, TIME STEP    1, STRESS PERIOD    1 FOR COMPONENT   1
                     -------------------------------------------------------------------------------------------------------

                                         CUMULATIVE MASS [M]                                     MASS FOR THIS TIME STEP [M]
                                         -------------------                                    --------------
                      STREAM DEPLETION =  0.4144161E-04                      STREAM DEPLETION =  0.1042792E-07
                      INFLOW TO STREAM =   1390.274                          INFLOW TO STREAM =   8.325000    
                          GW TO STREAM =   166.8395                              GW TO STREAM =  0.9990391    
                         PRECIPITATION =   0.000000                             PRECIPITATION =   0.000000    
                                RUNOFF =   0.000000                                    RUNOFF =   0.000000    
                CONSTANT CONCENTRATION =   0.000000                    CONSTANT CONCENTRATION =   0.000000    
                             MASS GAIN =   0.000000                                 MASS GAIN =   0.000000    
                                         -------------------                                    --------------
                              TOTAL IN =   1557.113                                  TOTAL IN =   9.324039    

                   STREAM ACCUMULATION =  0.1228665E-02                   STREAM ACCUMULATION =  0.1316892E-06
                        STREAM OUTFLOW =   1557.117                            STREAM OUTFLOW =   9.324040    
                          STREAM TO GW =   0.000000                              STREAM TO GW =   0.000000    
                CONSTANT CONCENTRATION =   0.000000                    CONSTANT CONCENTRATION =   0.000000    
                           EVAPORATION =   0.000000                               EVAPORATION =   0.000000    
                             MASS LOSS =   0.000000                                 MASS LOSS =   0.000000    
                                         -------------------                                    --------------
                             TOTAL OUT =   1557.119                                 TOTAL OUT =   9.324040    

                        NET (IN - OUT) = -0.5126953E-02                        NET (IN - OUT) = -0.1907349E-05
                 DISCREPANCY (PERCENT) = -0.3292596E-03                 DISCREPANCY (PERCENT) = -0.2045625E-04
                                              FLOW ERR (QIN-QOUT-DV) = -0.9536743E-06 [L3/T]




 >>>>>>>>>>>>>>>>>>>>>>>>>>>>>>>>>>>>>>>>>>>>>>>>>>>>>>>FOR COMPONENT NO. 01<<<<<<<<<<<<<<<<<<<<<<<<<<<<<<<<<<<<<<<<<<<<<<<<<<<<<<<


                                            -------------------------------------------
                                                      TRANSPORT STEP NO.  167
                                            -------------------------------------------

 TOTAL ELAPSED TIME SINCE BEGINNING OF SIMULATION =   30060.00    D   
 .....................................................................

                     CUMULATIVE MASS BUDGETS AT END OF TRANSPORT STEP  167, TIME STEP    1, STRESS PERIOD    1
                     -----------------------------------------------------------------------------------------

                                                             IN                           OUT
                                                      ----------------             ----------------
                               CONSTANT CONCENTRATION:    0.000000                    0.000000    
                                        CONSTANT HEAD:    375.2152                   -208.3807    
                                               STREAM:    0.000000                   -166.8395    
                               MASS STOR (FLOW MODEL):   0.5068914E-02              -0.6863330E-07
                                MASS STORAGE (SOLUTE):    0.000000                    0.000000    
                            ---------------------------------------------------------------------------
                                              [TOTAL]:    375.2203     KG            -375.2202     KG  

                                                          NET (IN - OUT):   0.1220703E-03
                                                   DISCREPANCY (PERCENT):   0.3253298E-04
     2 CALLS TO GCG PACKAGE FOR TRANSPORT TIME STEP   168 IN FLOW TIME STEP     1 STRESS PERIOD     1
      2 TOTAL ITERATIONS
  MAXIMUM CONCENTRATION CHANGES FOR EACH ITERATION:
  MAX. CHANGE LAYER,ROW,COL MAX. CHANGE LAYER,ROW,COL MAX. CHANGE LAYER,ROW,COL MAX. CHANGE LAYER,ROW,COL MAX. CHANGE LAYER,ROW,COL
 ------------------------------------------------------------------------------------------------------------------------------------
    0.000     (  1,  1,  1)   0.000     (  1,  1,  1)


                     STREAM MASS BUDGETS AT END OF TRANSPORT STEP  168, TIME STEP    1, STRESS PERIOD    1 FOR COMPONENT   1
                     -------------------------------------------------------------------------------------------------------

                                         CUMULATIVE MASS [M]                                     MASS FOR THIS TIME STEP [M]
                                         -------------------                                    --------------
                      STREAM DEPLETION =  0.4145203E-04                      STREAM DEPLETION =  0.1042003E-07
                      INFLOW TO STREAM =   1398.599                          INFLOW TO STREAM =   8.325000    
                          GW TO STREAM =   167.8385                              GW TO STREAM =  0.9990391    
                         PRECIPITATION =   0.000000                             PRECIPITATION =   0.000000    
                                RUNOFF =   0.000000                                    RUNOFF =   0.000000    
                CONSTANT CONCENTRATION =   0.000000                    CONSTANT CONCENTRATION =   0.000000    
                             MASS GAIN =   0.000000                                 MASS GAIN =   0.000000    
                                         -------------------                                    --------------
                              TOTAL IN =   1566.438                                  TOTAL IN =   9.324039    

                   STREAM ACCUMULATION =  0.1228788E-02                   STREAM ACCUMULATION =  0.1226275E-06
                        STREAM OUTFLOW =   1566.441                            STREAM OUTFLOW =   9.324040    
                          STREAM TO GW =   0.000000                              STREAM TO GW =   0.000000    
                CONSTANT CONCENTRATION =   0.000000                    CONSTANT CONCENTRATION =   0.000000    
                           EVAPORATION =   0.000000                               EVAPORATION =   0.000000    
                             MASS LOSS =   0.000000                                 MASS LOSS =   0.000000    
                                         -------------------                                    --------------
                             TOTAL OUT =   1566.443                                 TOTAL OUT =   9.324040    

                        NET (IN - OUT) = -0.5126953E-02                        NET (IN - OUT) = -0.1907349E-05
                 DISCREPANCY (PERCENT) = -0.3272997E-03                 DISCREPANCY (PERCENT) = -0.2045625E-04
                                              FLOW ERR (QIN-QOUT-DV) = -0.9536743E-06 [L3/T]




 >>>>>>>>>>>>>>>>>>>>>>>>>>>>>>>>>>>>>>>>>>>>>>>>>>>>>>>FOR COMPONENT NO. 01<<<<<<<<<<<<<<<<<<<<<<<<<<<<<<<<<<<<<<<<<<<<<<<<<<<<<<<


                                            -------------------------------------------
                                                      TRANSPORT STEP NO.  168
                                            -------------------------------------------

 TOTAL ELAPSED TIME SINCE BEGINNING OF SIMULATION =   30240.00    D   
 .....................................................................

                     CUMULATIVE MASS BUDGETS AT END OF TRANSPORT STEP  168, TIME STEP    1, STRESS PERIOD    1
                     -----------------------------------------------------------------------------------------

                                                             IN                           OUT
                                                      ----------------             ----------------
                               CONSTANT CONCENTRATION:    0.000000                    0.000000    
                                        CONSTANT HEAD:    377.4620                   -209.6284    
                                               STREAM:    0.000000                   -167.8385    
                               MASS STOR (FLOW MODEL):   0.5099267E-02              -0.6904428E-07
                                MASS STORAGE (SOLUTE):    0.000000                    0.000000    
                            ---------------------------------------------------------------------------
                                              [TOTAL]:    377.4671     KG            -377.4670     KG  

                                                          NET (IN - OUT):   0.1220703E-03
                                                   DISCREPANCY (PERCENT):   0.3233933E-04
     2 CALLS TO GCG PACKAGE FOR TRANSPORT TIME STEP   169 IN FLOW TIME STEP     1 STRESS PERIOD     1
      2 TOTAL ITERATIONS
  MAXIMUM CONCENTRATION CHANGES FOR EACH ITERATION:
  MAX. CHANGE LAYER,ROW,COL MAX. CHANGE LAYER,ROW,COL MAX. CHANGE LAYER,ROW,COL MAX. CHANGE LAYER,ROW,COL MAX. CHANGE LAYER,ROW,COL
 ------------------------------------------------------------------------------------------------------------------------------------
    0.000     (  1,  1,  1)   0.000     (  1,  1,  1)


                     STREAM MASS BUDGETS AT END OF TRANSPORT STEP  169, TIME STEP    1, STRESS PERIOD    1 FOR COMPONENT   1
                     -------------------------------------------------------------------------------------------------------

                                         CUMULATIVE MASS [M]                                     MASS FOR THIS TIME STEP [M]
                                         -------------------                                    --------------
                      STREAM DEPLETION =  0.4146227E-04                      STREAM DEPLETION =  0.1023985E-07
                      INFLOW TO STREAM =   1406.924                          INFLOW TO STREAM =   8.325000    
                          GW TO STREAM =   168.8376                              GW TO STREAM =  0.9990391    
                         PRECIPITATION =   0.000000                             PRECIPITATION =   0.000000    
                                RUNOFF =   0.000000                                    RUNOFF =   0.000000    
                CONSTANT CONCENTRATION =   0.000000                    CONSTANT CONCENTRATION =   0.000000    
                             MASS GAIN =   0.000000                                 MASS GAIN =   0.000000    
                                         -------------------                                    --------------
                              TOTAL IN =   1575.761                                  TOTAL IN =   9.324039    

                   STREAM ACCUMULATION =  0.1228902E-02                   STREAM ACCUMULATION =  0.1140485E-06
                        STREAM OUTFLOW =   1575.766                            STREAM OUTFLOW =   9.324040    
                          STREAM TO GW =   0.000000                              STREAM TO GW =   0.000000    
                CONSTANT CONCENTRATION =   0.000000                    CONSTANT CONCENTRATION =   0.000000    
                           EVAPORATION =   0.000000                               EVAPORATION =   0.000000    
                             MASS LOSS =   0.000000                                 MASS LOSS =   0.000000    
                                         -------------------                                    --------------
                             TOTAL OUT =   1575.767                                 TOTAL OUT =   9.324040    

                        NET (IN - OUT) = -0.5249023E-02                        NET (IN - OUT) = -0.1907349E-05
                 DISCREPANCY (PERCENT) = -0.3331097E-03                 DISCREPANCY (PERCENT) = -0.2045625E-04
                                              FLOW ERR (QIN-QOUT-DV) = -0.9536743E-06 [L3/T]




 >>>>>>>>>>>>>>>>>>>>>>>>>>>>>>>>>>>>>>>>>>>>>>>>>>>>>>>FOR COMPONENT NO. 01<<<<<<<<<<<<<<<<<<<<<<<<<<<<<<<<<<<<<<<<<<<<<<<<<<<<<<<


                                            -------------------------------------------
                                                      TRANSPORT STEP NO.  169
                                            -------------------------------------------

 TOTAL ELAPSED TIME SINCE BEGINNING OF SIMULATION =   30420.00    D   
 .....................................................................

                     CUMULATIVE MASS BUDGETS AT END OF TRANSPORT STEP  169, TIME STEP    1, STRESS PERIOD    1
                     -----------------------------------------------------------------------------------------

                                                             IN                           OUT
                                                      ----------------             ----------------
                               CONSTANT CONCENTRATION:    0.000000                    0.000000    
                                        CONSTANT HEAD:    379.7088                   -210.8762    
                                               STREAM:    0.000000                   -168.8376    
                               MASS STOR (FLOW MODEL):   0.5129620E-02              -0.6945525E-07
                                MASS STORAGE (SOLUTE):    0.000000                    0.000000    
                            ---------------------------------------------------------------------------
                                              [TOTAL]:    379.7139     KG            -379.7138     KG  

                                                          NET (IN - OUT):   0.1220703E-03
                                                   DISCREPANCY (PERCENT):   0.3214797E-04
     2 CALLS TO GCG PACKAGE FOR TRANSPORT TIME STEP   170 IN FLOW TIME STEP     1 STRESS PERIOD     1
      2 TOTAL ITERATIONS
  MAXIMUM CONCENTRATION CHANGES FOR EACH ITERATION:
  MAX. CHANGE LAYER,ROW,COL MAX. CHANGE LAYER,ROW,COL MAX. CHANGE LAYER,ROW,COL MAX. CHANGE LAYER,ROW,COL MAX. CHANGE LAYER,ROW,COL
 ------------------------------------------------------------------------------------------------------------------------------------
    0.000     (  1,  1,  1)   0.000     (  1,  1,  1)


                     STREAM MASS BUDGETS AT END OF TRANSPORT STEP  170, TIME STEP    1, STRESS PERIOD    1 FOR COMPONENT   1
                     -------------------------------------------------------------------------------------------------------

                                         CUMULATIVE MASS [M]                                     MASS FOR THIS TIME STEP [M]
                                         -------------------                                    --------------
                      STREAM DEPLETION =  0.4147249E-04                      STREAM DEPLETION =  0.1021700E-07
                      INFLOW TO STREAM =   1415.249                          INFLOW TO STREAM =   8.325000    
                          GW TO STREAM =   169.8366                              GW TO STREAM =  0.9990391    
                         PRECIPITATION =   0.000000                             PRECIPITATION =   0.000000    
                                RUNOFF =   0.000000                                    RUNOFF =   0.000000    
                CONSTANT CONCENTRATION =   0.000000                    CONSTANT CONCENTRATION =   0.000000    
                             MASS GAIN =   0.000000                                 MASS GAIN =   0.000000    
                                         -------------------                                    --------------
                              TOTAL IN =   1585.085                                  TOTAL IN =   9.324039    

                   STREAM ACCUMULATION =  0.1229008E-02                   STREAM ACCUMULATION =  0.1062252E-06
                        STREAM OUTFLOW =   1585.090                            STREAM OUTFLOW =   9.324040    
                          STREAM TO GW =   0.000000                              STREAM TO GW =   0.000000    
                CONSTANT CONCENTRATION =   0.000000                    CONSTANT CONCENTRATION =   0.000000    
                           EVAPORATION =   0.000000                               EVAPORATION =   0.000000    
                             MASS LOSS =   0.000000                                 MASS LOSS =   0.000000    
                                         -------------------                                    --------------
                             TOTAL OUT =   1585.091                                 TOTAL OUT =   9.324040    

                        NET (IN - OUT) = -0.5371094E-02                        NET (IN - OUT) = -0.1907349E-05
                 DISCREPANCY (PERCENT) = -0.3388514E-03                 DISCREPANCY (PERCENT) = -0.2045625E-04
                                              FLOW ERR (QIN-QOUT-DV) = -0.9536743E-06 [L3/T]




 >>>>>>>>>>>>>>>>>>>>>>>>>>>>>>>>>>>>>>>>>>>>>>>>>>>>>>>FOR COMPONENT NO. 01<<<<<<<<<<<<<<<<<<<<<<<<<<<<<<<<<<<<<<<<<<<<<<<<<<<<<<<


                                            -------------------------------------------
                                                      TRANSPORT STEP NO.  170
                                            -------------------------------------------

 TOTAL ELAPSED TIME SINCE BEGINNING OF SIMULATION =   30600.00    D   
 .....................................................................

                     CUMULATIVE MASS BUDGETS AT END OF TRANSPORT STEP  170, TIME STEP    1, STRESS PERIOD    1
                     -----------------------------------------------------------------------------------------

                                                             IN                           OUT
                                                      ----------------             ----------------
                               CONSTANT CONCENTRATION:    0.000000                    0.000000    
                                        CONSTANT HEAD:    381.9556                   -212.1240    
                                               STREAM:    0.000000                   -169.8366    
                               MASS STOR (FLOW MODEL):   0.5159972E-02              -0.6986623E-07
                                MASS STORAGE (SOLUTE):    0.000000                    0.000000    
                            ---------------------------------------------------------------------------
                                              [TOTAL]:    381.9608     KG            -381.9606     KG  

                                                          NET (IN - OUT):   0.1220703E-03
                                                   DISCREPANCY (PERCENT):   0.3195887E-04


                                   ++++++++++++++++++++++++++++++++++++++++++++++++++++++++++++++
                                                       STRESS PERIOD NO.  002
                                   ++++++++++++++++++++++++++++++++++++++++++++++++++++++++++++++


 LENGTH OF CURRENT STRESS PERIOD =   10800.00    
 NUMBER OF TIME STEPS FOR CURRENT STRESS PERIOD =    1
 TIME STEP MULTIPLIER USED IN FLOW SOLUTION =   1.000000    

 ***Type of Transport Simulation is TRANSIENT

 USER-SPECIFIED TRANSPORT STEPSIZE =   180.0000    D   
 MAXIMUM NUMBER OF TRANSPORT STEPS ALLOWED  IN ONE FLOW TIME STEP =      2500
 MULTIPLIER FOR SUCCESSIVE TRANSPORT STEPS  [USED IN IMPLICIT SCHEMES] =     1.000
 MAXIMUM TRANSPORT STEP SIZE  [USED IN IMPLICIT SCHEMES] =   0.000000    D   

 POINT SINKS/SOURCES OF SPECIFIED CONCENTRATION REUSED FROM LAST STRESS PERIOD


 STREAM BOUNDARY CONDITIONS
 --------------------------


 NO. OF STREAM SINKS/SOURCES OF SPECIFIED CONCENTRATIONS =    1 IN STRESS PERIOD  2

      SFTN    BC-TYPE       CONC(1,NCOMP)
         1  HEADWATER       11.40000    


                                          ================================================
                                                         TIME STEP NO.  001
                                          ================================================

 FROM TIME =   30600.     TO    41400.    


                    "THKSAT          " FLOW TERMS FOR TIME STEP  1, STRESS PERIOD  2 READ UNFORMATTED ON UNIT 39
                    --------------------------------------------------------------------------------------------

                    "QXX             " FLOW TERMS FOR TIME STEP  1, STRESS PERIOD  2 READ UNFORMATTED ON UNIT 39
                    --------------------------------------------------------------------------------------------

                    "QYY             " FLOW TERMS FOR TIME STEP  1, STRESS PERIOD  2 READ UNFORMATTED ON UNIT 39
                    --------------------------------------------------------------------------------------------

                    "STO             " FLOW TERMS FOR TIME STEP  1, STRESS PERIOD  2 READ UNFORMATTED ON UNIT 39
                    --------------------------------------------------------------------------------------------

 MAXIMUM STEPSIZE DURING WHICH ANY PARTICLE CANNOT MOVE MORE THAN ONE CELL
 = 0.1912E+05(WHEN MIN. R.F.=1)  AT K=   1, I=   2, J= 106

 MAXIMUM STEPSIZE WHICH MEETS STABILITY CRITERION OF THE ADVECTION TERM
 (FOR PURE FINITE-DIFFERENCE OPTION, MIXELM=0) 
 = 0.1677E+05(WHEN MIN. R.F.=1)  AT K=   1, I=   3, J= 650

                    "CNH             " FLOW TERMS FOR TIME STEP  1, STRESS PERIOD  2 READ UNFORMATTED ON UNIT 39
                    --------------------------------------------------------------------------------------------

                    "SFR FLOWS SS    " FLOW TERMS FOR TIME STEP  1, STRESS PERIOD  2 READ UNFORMATTED ON UNIT 39
                    --------------------------------------------------------------------------------------------


 TOTAL NUMBER OF POINT SOURCES/SINKS PRESENT IN THE FLOW MODEL =  1300

 MAXIMUM STEPSIZE WHICH MEETS STABILITY CRITERION OF THE SINK & SOURCE TERM
 = 0.1791E+05(WHEN MIN. R.F.=1)  AT K=   1, I=   1, J=   1


     2 CALLS TO GCG PACKAGE FOR TRANSPORT TIME STEP     1 IN FLOW TIME STEP     1 STRESS PERIOD     2
      2 TOTAL ITERATIONS
  MAXIMUM CONCENTRATION CHANGES FOR EACH ITERATION:
  MAX. CHANGE LAYER,ROW,COL MAX. CHANGE LAYER,ROW,COL MAX. CHANGE LAYER,ROW,COL MAX. CHANGE LAYER,ROW,COL MAX. CHANGE LAYER,ROW,COL
 ------------------------------------------------------------------------------------------------------------------------------------
    0.000     (  1,  1,  1)   0.000     (  1,  1,  1)


                     STREAM MASS BUDGETS AT END OF TRANSPORT STEP    1, TIME STEP    1, STRESS PERIOD    2 FOR COMPONENT   1
                     -------------------------------------------------------------------------------------------------------

                                         CUMULATIVE MASS [M]                                     MASS FOR THIS TIME STEP [M]
                                         -------------------                                    --------------
                      STREAM DEPLETION =  0.4148145E-04                      STREAM DEPLETION =  0.8962456E-08
                      INFLOW TO STREAM =   1440.899                          INFLOW TO STREAM =   25.65000    
                          GW TO STREAM =   170.8356                              GW TO STREAM =  0.9990391    
                         PRECIPITATION =   0.000000                             PRECIPITATION =   0.000000    
                                RUNOFF =   0.000000                                    RUNOFF =   0.000000    
                CONSTANT CONCENTRATION =   0.000000                    CONSTANT CONCENTRATION =   0.000000    
                             MASS GAIN =   0.000000                                 MASS GAIN =   0.000000    
                                         -------------------                                    --------------
                              TOTAL IN =   1611.734                                  TOTAL IN =   26.64904    

                   STREAM ACCUMULATION =   17.32622                       STREAM ACCUMULATION =   17.32499    
                        STREAM OUTFLOW =   1594.414                            STREAM OUTFLOW =   9.324040    
                          STREAM TO GW =   0.000000                              STREAM TO GW =   0.000000    
                CONSTANT CONCENTRATION =   0.000000                    CONSTANT CONCENTRATION =   0.000000    
                           EVAPORATION =   0.000000                               EVAPORATION =   0.000000    
                             MASS LOSS =   0.000000                                 MASS LOSS =   0.000000    
                                         -------------------                                    --------------
                             TOTAL OUT =   1611.740                                 TOTAL OUT =   26.64903    

                        NET (IN - OUT) = -0.5371094E-02                        NET (IN - OUT) =  0.9536743E-05
                 DISCREPANCY (PERCENT) = -0.3332487E-03                 DISCREPANCY (PERCENT) =  0.3578645E-04
                                              FLOW ERR (QIN-QOUT-DV) = -0.9536743E-06 [L3/T]




 >>>>>>>>>>>>>>>>>>>>>>>>>>>>>>>>>>>>>>>>>>>>>>>>>>>>>>>FOR COMPONENT NO. 01<<<<<<<<<<<<<<<<<<<<<<<<<<<<<<<<<<<<<<<<<<<<<<<<<<<<<<<


                                            -------------------------------------------
                                                      TRANSPORT STEP NO.    1
                                            -------------------------------------------

 TOTAL ELAPSED TIME SINCE BEGINNING OF SIMULATION =   30780.00    D   
 .....................................................................

                     CUMULATIVE MASS BUDGETS AT END OF TRANSPORT STEP    1, TIME STEP    1, STRESS PERIOD    2
                     -----------------------------------------------------------------------------------------

                                                             IN                           OUT
                                                      ----------------             ----------------
                               CONSTANT CONCENTRATION:    0.000000                    0.000000    
                                        CONSTANT HEAD:    384.2024                   -213.3718    
                                               STREAM:    0.000000                   -170.8356    
                               MASS STOR (FLOW MODEL):   0.5159998E-02              -0.6986623E-07
                                MASS STORAGE (SOLUTE):    0.000000                    0.000000    
                            ---------------------------------------------------------------------------
                                              [TOTAL]:    384.2076     KG            -384.2075     KG  

                                                          NET (IN - OUT):   0.1220703E-03
                                                   DISCREPANCY (PERCENT):   0.3177198E-04
     2 CALLS TO GCG PACKAGE FOR TRANSPORT TIME STEP     2 IN FLOW TIME STEP     1 STRESS PERIOD     2
      2 TOTAL ITERATIONS
  MAXIMUM CONCENTRATION CHANGES FOR EACH ITERATION:
  MAX. CHANGE LAYER,ROW,COL MAX. CHANGE LAYER,ROW,COL MAX. CHANGE LAYER,ROW,COL MAX. CHANGE LAYER,ROW,COL MAX. CHANGE LAYER,ROW,COL
 ------------------------------------------------------------------------------------------------------------------------------------
    0.000     (  1,  1,  1)   0.000     (  1,  1,  1)


                     STREAM MASS BUDGETS AT END OF TRANSPORT STEP    2, TIME STEP    1, STRESS PERIOD    2 FOR COMPONENT   1
                     -------------------------------------------------------------------------------------------------------

                                         CUMULATIVE MASS [M]                                     MASS FOR THIS TIME STEP [M]
                                         -------------------                                    --------------
                      STREAM DEPLETION =   1.124233                          STREAM DEPLETION =   1.124192    
                      INFLOW TO STREAM =   1466.549                          INFLOW TO STREAM =   25.65000    
                          GW TO STREAM =   171.8347                              GW TO STREAM =  0.9990391    
                         PRECIPITATION =   0.000000                             PRECIPITATION =   0.000000    
                                RUNOFF =   0.000000                                    RUNOFF =   0.000000    
                CONSTANT CONCENTRATION =   0.000000                    CONSTANT CONCENTRATION =   0.000000    
                             MASS GAIN =   0.000000                                 MASS GAIN =   0.000000    
                                         -------------------                                    --------------
                              TOTAL IN =   1639.508                                  TOTAL IN =   27.77323    

                   STREAM ACCUMULATION =   35.77540                       STREAM ACCUMULATION =   18.44919    
                        STREAM OUTFLOW =   1603.738                            STREAM OUTFLOW =   9.324040    
                          STREAM TO GW =   0.000000                              STREAM TO GW =   0.000000    
                CONSTANT CONCENTRATION =   0.000000                    CONSTANT CONCENTRATION =   0.000000    
                           EVAPORATION =   0.000000                               EVAPORATION =   0.000000    
                             MASS LOSS =   0.000000                                 MASS LOSS =   0.000000    
                                         -------------------                                    --------------
                             TOTAL OUT =   1639.513                                 TOTAL OUT =   27.77323    

                        NET (IN - OUT) = -0.5493164E-02                        NET (IN - OUT) =  0.1907349E-05
                 DISCREPANCY (PERCENT) = -0.3350490E-03                 DISCREPANCY (PERCENT) =  0.6867580E-05
                                              FLOW ERR (QIN-QOUT-DV) = -0.9536743E-06 [L3/T]




 >>>>>>>>>>>>>>>>>>>>>>>>>>>>>>>>>>>>>>>>>>>>>>>>>>>>>>>FOR COMPONENT NO. 01<<<<<<<<<<<<<<<<<<<<<<<<<<<<<<<<<<<<<<<<<<<<<<<<<<<<<<<


                                            -------------------------------------------
                                                      TRANSPORT STEP NO.    2
                                            -------------------------------------------

 TOTAL ELAPSED TIME SINCE BEGINNING OF SIMULATION =   30960.00    D   
 .....................................................................

                     CUMULATIVE MASS BUDGETS AT END OF TRANSPORT STEP    2, TIME STEP    1, STRESS PERIOD    2
                     -----------------------------------------------------------------------------------------

                                                             IN                           OUT
                                                      ----------------             ----------------
                               CONSTANT CONCENTRATION:    0.000000                    0.000000    
                                        CONSTANT HEAD:    386.4492                   -214.6196    
                                               STREAM:    0.000000                   -171.8347    
                               MASS STOR (FLOW MODEL):   0.5160023E-02              -0.6986623E-07
                                MASS STORAGE (SOLUTE):    0.000000                    0.000000    
                            ---------------------------------------------------------------------------
                                              [TOTAL]:    386.4544     KG            -386.4543     KG  

                                                          NET (IN - OUT):   0.1220703E-03
                                                   DISCREPANCY (PERCENT):   0.3158725E-04
     2 CALLS TO GCG PACKAGE FOR TRANSPORT TIME STEP     3 IN FLOW TIME STEP     1 STRESS PERIOD     2
      2 TOTAL ITERATIONS
  MAXIMUM CONCENTRATION CHANGES FOR EACH ITERATION:
  MAX. CHANGE LAYER,ROW,COL MAX. CHANGE LAYER,ROW,COL MAX. CHANGE LAYER,ROW,COL MAX. CHANGE LAYER,ROW,COL MAX. CHANGE LAYER,ROW,COL
 ------------------------------------------------------------------------------------------------------------------------------------
    0.000     (  1,  1,  1)   0.000     (  1,  1,  1)


                     STREAM MASS BUDGETS AT END OF TRANSPORT STEP    3, TIME STEP    1, STRESS PERIOD    2 FOR COMPONENT   1
                     -------------------------------------------------------------------------------------------------------

                                         CUMULATIVE MASS [M]                                     MASS FOR THIS TIME STEP [M]
                                         -------------------                                    --------------
                      STREAM DEPLETION =   1.712292                          STREAM DEPLETION =  0.5880589    
                      INFLOW TO STREAM =   1492.199                          INFLOW TO STREAM =   25.65000    
                          GW TO STREAM =   172.8337                              GW TO STREAM =  0.9990391    
                         PRECIPITATION =   0.000000                             PRECIPITATION =   0.000000    
                                RUNOFF =   0.000000                                    RUNOFF =   0.000000    
                CONSTANT CONCENTRATION =   0.000000                    CONSTANT CONCENTRATION =   0.000000    
                             MASS GAIN =   0.000000                                 MASS GAIN =   0.000000    
                                         -------------------                                    --------------
                              TOTAL IN =   1666.745                                  TOTAL IN =   27.23710    

                   STREAM ACCUMULATION =   53.68845                       STREAM ACCUMULATION =   17.91305    
                        STREAM OUTFLOW =   1613.062                            STREAM OUTFLOW =   9.324040    
                          STREAM TO GW =   0.000000                              STREAM TO GW =   0.000000    
                CONSTANT CONCENTRATION =   0.000000                    CONSTANT CONCENTRATION =   0.000000    
                           EVAPORATION =   0.000000                               EVAPORATION =   0.000000    
                             MASS LOSS =   0.000000                                 MASS LOSS =   0.000000    
                                         -------------------                                    --------------
                             TOTAL OUT =   1666.750                                 TOTAL OUT =   27.23709    

                        NET (IN - OUT) = -0.5493164E-02                        NET (IN - OUT) =  0.5722046E-05
                 DISCREPANCY (PERCENT) = -0.3295738E-03                 DISCREPANCY (PERCENT) =  0.2100828E-04
                                              FLOW ERR (QIN-QOUT-DV) = -0.9536743E-06 [L3/T]




 >>>>>>>>>>>>>>>>>>>>>>>>>>>>>>>>>>>>>>>>>>>>>>>>>>>>>>>FOR COMPONENT NO. 01<<<<<<<<<<<<<<<<<<<<<<<<<<<<<<<<<<<<<<<<<<<<<<<<<<<<<<<


                                            -------------------------------------------
                                                      TRANSPORT STEP NO.    3
                                            -------------------------------------------

 TOTAL ELAPSED TIME SINCE BEGINNING OF SIMULATION =   31140.00    D   
 .....................................................................

                     CUMULATIVE MASS BUDGETS AT END OF TRANSPORT STEP    3, TIME STEP    1, STRESS PERIOD    2
                     -----------------------------------------------------------------------------------------

                                                             IN                           OUT
                                                      ----------------             ----------------
                               CONSTANT CONCENTRATION:    0.000000                    0.000000    
                                        CONSTANT HEAD:    388.6961                   -215.8674    
                                               STREAM:    0.000000                   -172.8337    
                               MASS STOR (FLOW MODEL):   0.5160049E-02              -0.6986623E-07
                                MASS STORAGE (SOLUTE):    0.000000                    0.000000    
                            ---------------------------------------------------------------------------
                                              [TOTAL]:    388.7012     KG            -388.7011     KG  

                                                          NET (IN - OUT):   0.1220703E-03
                                                   DISCREPANCY (PERCENT):   0.3140467E-04
     2 CALLS TO GCG PACKAGE FOR TRANSPORT TIME STEP     4 IN FLOW TIME STEP     1 STRESS PERIOD     2
      2 TOTAL ITERATIONS
  MAXIMUM CONCENTRATION CHANGES FOR EACH ITERATION:
  MAX. CHANGE LAYER,ROW,COL MAX. CHANGE LAYER,ROW,COL MAX. CHANGE LAYER,ROW,COL MAX. CHANGE LAYER,ROW,COL MAX. CHANGE LAYER,ROW,COL
 ------------------------------------------------------------------------------------------------------------------------------------
    0.000     (  1,  1,  1)   0.000     (  1,  1,  1)


                     STREAM MASS BUDGETS AT END OF TRANSPORT STEP    4, TIME STEP    1, STRESS PERIOD    2 FOR COMPONENT   1
                     -------------------------------------------------------------------------------------------------------

                                         CUMULATIVE MASS [M]                                     MASS FOR THIS TIME STEP [M]
                                         -------------------                                    --------------
                      STREAM DEPLETION =   2.250481                          STREAM DEPLETION =  0.5381889    
                      INFLOW TO STREAM =   1517.849                          INFLOW TO STREAM =   25.65000    
                          GW TO STREAM =   173.8327                              GW TO STREAM =  0.9990391    
                         PRECIPITATION =   0.000000                             PRECIPITATION =   0.000000    
                                RUNOFF =   0.000000                                    RUNOFF =   0.000000    
                CONSTANT CONCENTRATION =   0.000000                    CONSTANT CONCENTRATION =   0.000000    
                             MASS GAIN =   0.000000                                 MASS GAIN =   0.000000    
                                         -------------------                                    --------------
                              TOTAL IN =   1693.932                                  TOTAL IN =   27.18723    

                   STREAM ACCUMULATION =   71.55164                       STREAM ACCUMULATION =   17.86318    
                        STREAM OUTFLOW =   1622.386                            STREAM OUTFLOW =   9.324040    
                          STREAM TO GW =   0.000000                              STREAM TO GW =   0.000000    
                CONSTANT CONCENTRATION =   0.000000                    CONSTANT CONCENTRATION =   0.000000    
                           EVAPORATION =   0.000000                               EVAPORATION =   0.000000    
                             MASS LOSS =   0.000000                                 MASS LOSS =   0.000000    
                                         -------------------                                    --------------
                             TOTAL OUT =   1693.938                                 TOTAL OUT =   27.18723    

                        NET (IN - OUT) = -0.5493164E-02                        NET (IN - OUT) =  0.1907349E-05
                 DISCREPANCY (PERCENT) = -0.3242843E-03                 DISCREPANCY (PERCENT) =  0.7015606E-05
                                              FLOW ERR (QIN-QOUT-DV) = -0.9536743E-06 [L3/T]




 >>>>>>>>>>>>>>>>>>>>>>>>>>>>>>>>>>>>>>>>>>>>>>>>>>>>>>>FOR COMPONENT NO. 01<<<<<<<<<<<<<<<<<<<<<<<<<<<<<<<<<<<<<<<<<<<<<<<<<<<<<<<


                                            -------------------------------------------
                                                      TRANSPORT STEP NO.    4
                                            -------------------------------------------

 TOTAL ELAPSED TIME SINCE BEGINNING OF SIMULATION =   31320.00    D   
 .....................................................................

                     CUMULATIVE MASS BUDGETS AT END OF TRANSPORT STEP    4, TIME STEP    1, STRESS PERIOD    2
                     -----------------------------------------------------------------------------------------

                                                             IN                           OUT
                                                      ----------------             ----------------
                               CONSTANT CONCENTRATION:    0.000000                    0.000000    
                                        CONSTANT HEAD:    390.9429                   -217.1152    
                                               STREAM:    0.000000                   -173.8327    
                               MASS STOR (FLOW MODEL):   0.5160075E-02              -0.6986623E-07
                                MASS STORAGE (SOLUTE):    0.000000                    0.000000    
                            ---------------------------------------------------------------------------
                                              [TOTAL]:    390.9481     KG            -390.9479     KG  

                                                          NET (IN - OUT):   0.1220703E-03
                                                   DISCREPANCY (PERCENT):   0.3122418E-04
     2 CALLS TO GCG PACKAGE FOR TRANSPORT TIME STEP     5 IN FLOW TIME STEP     1 STRESS PERIOD     2
      2 TOTAL ITERATIONS
  MAXIMUM CONCENTRATION CHANGES FOR EACH ITERATION:
  MAX. CHANGE LAYER,ROW,COL MAX. CHANGE LAYER,ROW,COL MAX. CHANGE LAYER,ROW,COL MAX. CHANGE LAYER,ROW,COL MAX. CHANGE LAYER,ROW,COL
 ------------------------------------------------------------------------------------------------------------------------------------
    0.000     (  1,  1,  1)   0.000     (  1,  1,  1)


                     STREAM MASS BUDGETS AT END OF TRANSPORT STEP    5, TIME STEP    1, STRESS PERIOD    2 FOR COMPONENT   1
                     -------------------------------------------------------------------------------------------------------

                                         CUMULATIVE MASS [M]                                     MASS FOR THIS TIME STEP [M]
                                         -------------------                                    --------------
                      STREAM DEPLETION =   2.815520                          STREAM DEPLETION =  0.5650387    
                      INFLOW TO STREAM =   1543.499                          INFLOW TO STREAM =   25.65000    
                          GW TO STREAM =   174.8318                              GW TO STREAM =  0.9990391    
                         PRECIPITATION =   0.000000                             PRECIPITATION =   0.000000    
                                RUNOFF =   0.000000                                    RUNOFF =   0.000000    
                CONSTANT CONCENTRATION =   0.000000                    CONSTANT CONCENTRATION =   0.000000    
                             MASS GAIN =   0.000000                                 MASS GAIN =   0.000000    
                                         -------------------                                    --------------
                              TOTAL IN =   1721.146                                  TOTAL IN =   27.21408    

                   STREAM ACCUMULATION =   89.44167                       STREAM ACCUMULATION =   17.89004    
                        STREAM OUTFLOW =   1631.710                            STREAM OUTFLOW =   9.324040    
                          STREAM TO GW =   0.000000                              STREAM TO GW =   0.000000    
                CONSTANT CONCENTRATION =   0.000000                    CONSTANT CONCENTRATION =   0.000000    
                           EVAPORATION =   0.000000                               EVAPORATION =   0.000000    
                             MASS LOSS =   0.000000                                 MASS LOSS =   0.000000    
                                         -------------------                                    --------------
                             TOTAL OUT =   1721.152                                 TOTAL OUT =   27.21408    

                        NET (IN - OUT) = -0.5493164E-02                        NET (IN - OUT) =   0.000000    
                 DISCREPANCY (PERCENT) = -0.3191568E-03                 DISCREPANCY (PERCENT) =   0.000000    
                                              FLOW ERR (QIN-QOUT-DV) = -0.9536743E-06 [L3/T]




 >>>>>>>>>>>>>>>>>>>>>>>>>>>>>>>>>>>>>>>>>>>>>>>>>>>>>>>FOR COMPONENT NO. 01<<<<<<<<<<<<<<<<<<<<<<<<<<<<<<<<<<<<<<<<<<<<<<<<<<<<<<<


                                            -------------------------------------------
                                                      TRANSPORT STEP NO.    5
                                            -------------------------------------------

 TOTAL ELAPSED TIME SINCE BEGINNING OF SIMULATION =   31500.00    D   
 .....................................................................

                     CUMULATIVE MASS BUDGETS AT END OF TRANSPORT STEP    5, TIME STEP    1, STRESS PERIOD    2
                     -----------------------------------------------------------------------------------------

                                                             IN                           OUT
                                                      ----------------             ----------------
                               CONSTANT CONCENTRATION:    0.000000                    0.000000    
                                        CONSTANT HEAD:    393.1897                   -218.3630    
                                               STREAM:    0.000000                   -174.8318    
                               MASS STOR (FLOW MODEL):   0.5160100E-02              -0.6986623E-07
                                MASS STORAGE (SOLUTE):    0.000000                    0.000000    
                            ---------------------------------------------------------------------------
                                              [TOTAL]:    393.1949     KG            -393.1948     KG  

                                                          NET (IN - OUT):   0.1220703E-03
                                                   DISCREPANCY (PERCENT):   0.3104576E-04
     2 CALLS TO GCG PACKAGE FOR TRANSPORT TIME STEP     6 IN FLOW TIME STEP     1 STRESS PERIOD     2
      2 TOTAL ITERATIONS
  MAXIMUM CONCENTRATION CHANGES FOR EACH ITERATION:
  MAX. CHANGE LAYER,ROW,COL MAX. CHANGE LAYER,ROW,COL MAX. CHANGE LAYER,ROW,COL MAX. CHANGE LAYER,ROW,COL MAX. CHANGE LAYER,ROW,COL
 ------------------------------------------------------------------------------------------------------------------------------------
    0.000     (  1,  1,  1)   0.000     (  1,  1,  1)


                     STREAM MASS BUDGETS AT END OF TRANSPORT STEP    6, TIME STEP    1, STRESS PERIOD    2 FOR COMPONENT   1
                     -------------------------------------------------------------------------------------------------------

                                         CUMULATIVE MASS [M]                                     MASS FOR THIS TIME STEP [M]
                                         -------------------                                    --------------
                      STREAM DEPLETION =   3.291320                          STREAM DEPLETION =  0.4758004    
                      INFLOW TO STREAM =   1569.149                          INFLOW TO STREAM =   25.65000    
                          GW TO STREAM =   175.8308                              GW TO STREAM =  0.9990391    
                         PRECIPITATION =   0.000000                             PRECIPITATION =   0.000000    
                                RUNOFF =   0.000000                                    RUNOFF =   0.000000    
                CONSTANT CONCENTRATION =   0.000000                    CONSTANT CONCENTRATION =   0.000000    
                             MASS GAIN =   0.000000                                 MASS GAIN =   0.000000    
                                         -------------------                                    --------------
                              TOTAL IN =   1748.271                                  TOTAL IN =   27.12484    

                   STREAM ACCUMULATION =   107.2425                       STREAM ACCUMULATION =   17.80080    
                        STREAM OUTFLOW =   1641.034                            STREAM OUTFLOW =   9.324040    
                          STREAM TO GW =   0.000000                              STREAM TO GW =   0.000000    
                CONSTANT CONCENTRATION =   0.000000                    CONSTANT CONCENTRATION =   0.000000    
                           EVAPORATION =   0.000000                               EVAPORATION =   0.000000    
                             MASS LOSS =   0.000000                                 MASS LOSS =   0.000000    
                                         -------------------                                    --------------
                             TOTAL OUT =   1748.277                                 TOTAL OUT =   27.12484    

                        NET (IN - OUT) = -0.5493164E-02                        NET (IN - OUT) = -0.1907349E-05
                 DISCREPANCY (PERCENT) = -0.3142050E-03                 DISCREPANCY (PERCENT) = -0.7031741E-05
                                              FLOW ERR (QIN-QOUT-DV) = -0.9536743E-06 [L3/T]




 >>>>>>>>>>>>>>>>>>>>>>>>>>>>>>>>>>>>>>>>>>>>>>>>>>>>>>>FOR COMPONENT NO. 01<<<<<<<<<<<<<<<<<<<<<<<<<<<<<<<<<<<<<<<<<<<<<<<<<<<<<<<


                                            -------------------------------------------
                                                      TRANSPORT STEP NO.    6
                                            -------------------------------------------

 TOTAL ELAPSED TIME SINCE BEGINNING OF SIMULATION =   31680.00    D   
 .....................................................................

                     CUMULATIVE MASS BUDGETS AT END OF TRANSPORT STEP    6, TIME STEP    1, STRESS PERIOD    2
                     -----------------------------------------------------------------------------------------

                                                             IN                           OUT
                                                      ----------------             ----------------
                               CONSTANT CONCENTRATION:    0.000000                    0.000000    
                                        CONSTANT HEAD:    395.4366                   -219.6107    
                                               STREAM:    0.000000                   -175.8308    
                               MASS STOR (FLOW MODEL):   0.5160126E-02              -0.6986623E-07
                                MASS STORAGE (SOLUTE):    0.000000                    0.000000    
                            ---------------------------------------------------------------------------
                                              [TOTAL]:    395.4417     KG            -395.4416     KG  

                                                          NET (IN - OUT):   0.1220703E-03
                                                   DISCREPANCY (PERCENT):   0.3086936E-04
     2 CALLS TO GCG PACKAGE FOR TRANSPORT TIME STEP     7 IN FLOW TIME STEP     1 STRESS PERIOD     2
      2 TOTAL ITERATIONS
  MAXIMUM CONCENTRATION CHANGES FOR EACH ITERATION:
  MAX. CHANGE LAYER,ROW,COL MAX. CHANGE LAYER,ROW,COL MAX. CHANGE LAYER,ROW,COL MAX. CHANGE LAYER,ROW,COL MAX. CHANGE LAYER,ROW,COL
 ------------------------------------------------------------------------------------------------------------------------------------
    0.000     (  1,  1,  1)   0.000     (  1,  1,  1)


                     STREAM MASS BUDGETS AT END OF TRANSPORT STEP    7, TIME STEP    1, STRESS PERIOD    2 FOR COMPONENT   1
                     -------------------------------------------------------------------------------------------------------

                                         CUMULATIVE MASS [M]                                     MASS FOR THIS TIME STEP [M]
                                         -------------------                                    --------------
                      STREAM DEPLETION =   3.712657                          STREAM DEPLETION =  0.4213367    
                      INFLOW TO STREAM =   1594.799                          INFLOW TO STREAM =   25.65000    
                          GW TO STREAM =   176.8299                              GW TO STREAM =  0.9990391    
                         PRECIPITATION =   0.000000                             PRECIPITATION =   0.000000    
                                RUNOFF =   0.000000                                    RUNOFF =   0.000000    
                CONSTANT CONCENTRATION =   0.000000                    CONSTANT CONCENTRATION =   0.000000    
                             MASS GAIN =   0.000000                                 MASS GAIN =   0.000000    
                                         -------------------                                    --------------
                              TOTAL IN =   1775.341                                  TOTAL IN =   27.07038    

                   STREAM ACCUMULATION =   124.9888                       STREAM ACCUMULATION =   17.74633    
                        STREAM OUTFLOW =   1650.358                            STREAM OUTFLOW =   9.324040    
                          STREAM TO GW =   0.000000                              STREAM TO GW =   0.000000    
                CONSTANT CONCENTRATION =   0.000000                    CONSTANT CONCENTRATION =   0.000000    
                           EVAPORATION =   0.000000                               EVAPORATION =   0.000000    
                             MASS LOSS =   0.000000                                 MASS LOSS =   0.000000    
                                         -------------------                                    --------------
                             TOTAL OUT =   1775.347                                 TOTAL OUT =   27.07037    

                        NET (IN - OUT) = -0.5615234E-02                        NET (IN - OUT) =  0.5722046E-05
                 DISCREPANCY (PERCENT) = -0.3162899E-03                 DISCREPANCY (PERCENT) =  0.2113767E-04
                                              FLOW ERR (QIN-QOUT-DV) = -0.9536743E-06 [L3/T]




 >>>>>>>>>>>>>>>>>>>>>>>>>>>>>>>>>>>>>>>>>>>>>>>>>>>>>>>FOR COMPONENT NO. 01<<<<<<<<<<<<<<<<<<<<<<<<<<<<<<<<<<<<<<<<<<<<<<<<<<<<<<<


                                            -------------------------------------------
                                                      TRANSPORT STEP NO.    7
                                            -------------------------------------------

 TOTAL ELAPSED TIME SINCE BEGINNING OF SIMULATION =   31860.00    D   
 .....................................................................

                     CUMULATIVE MASS BUDGETS AT END OF TRANSPORT STEP    7, TIME STEP    1, STRESS PERIOD    2
                     -----------------------------------------------------------------------------------------

                                                             IN                           OUT
                                                      ----------------             ----------------
                               CONSTANT CONCENTRATION:    0.000000                    0.000000    
                                        CONSTANT HEAD:    397.6834                   -220.8585    
                                               STREAM:    0.000000                   -176.8299    
                               MASS STOR (FLOW MODEL):   0.5160152E-02              -0.6986623E-07
                                MASS STORAGE (SOLUTE):    0.000000                    0.000000    
                            ---------------------------------------------------------------------------
                                              [TOTAL]:    397.6885     KG            -397.6884     KG  

                                                          NET (IN - OUT):   0.1220703E-03
                                                   DISCREPANCY (PERCENT):   0.3069496E-04
     2 CALLS TO GCG PACKAGE FOR TRANSPORT TIME STEP     8 IN FLOW TIME STEP     1 STRESS PERIOD     2
      2 TOTAL ITERATIONS
  MAXIMUM CONCENTRATION CHANGES FOR EACH ITERATION:
  MAX. CHANGE LAYER,ROW,COL MAX. CHANGE LAYER,ROW,COL MAX. CHANGE LAYER,ROW,COL MAX. CHANGE LAYER,ROW,COL MAX. CHANGE LAYER,ROW,COL
 ------------------------------------------------------------------------------------------------------------------------------------
    0.000     (  1,  1,  1)   0.000     (  1,  1,  1)


                     STREAM MASS BUDGETS AT END OF TRANSPORT STEP    8, TIME STEP    1, STRESS PERIOD    2 FOR COMPONENT   1
                     -------------------------------------------------------------------------------------------------------

                                         CUMULATIVE MASS [M]                                     MASS FOR THIS TIME STEP [M]
                                         -------------------                                    --------------
                      STREAM DEPLETION =   4.100989                          STREAM DEPLETION =  0.3883320    
                      INFLOW TO STREAM =   1620.449                          INFLOW TO STREAM =   25.65000    
                          GW TO STREAM =   177.8289                              GW TO STREAM =  0.9990391    
                         PRECIPITATION =   0.000000                             PRECIPITATION =   0.000000    
                                RUNOFF =   0.000000                                    RUNOFF =   0.000000    
                CONSTANT CONCENTRATION =   0.000000                    CONSTANT CONCENTRATION =   0.000000    
                             MASS GAIN =   0.000000                                 MASS GAIN =   0.000000    
                                         -------------------                                    --------------
                              TOTAL IN =   1802.379                                  TOTAL IN =   27.03737    

                   STREAM ACCUMULATION =   142.7021                       STREAM ACCUMULATION =   17.71332    
                        STREAM OUTFLOW =   1659.682                            STREAM OUTFLOW =   9.324040    
                          STREAM TO GW =   0.000000                              STREAM TO GW =   0.000000    
                CONSTANT CONCENTRATION =   0.000000                    CONSTANT CONCENTRATION =   0.000000    
                           EVAPORATION =   0.000000                               EVAPORATION =   0.000000    
                             MASS LOSS =   0.000000                                 MASS LOSS =   0.000000    
                                         -------------------                                    --------------
                             TOTAL OUT =   1802.385                                 TOTAL OUT =   27.03736    

                        NET (IN - OUT) = -0.5615234E-02                        NET (IN - OUT) =  0.9536743E-05
                 DISCREPANCY (PERCENT) = -0.3115452E-03                 DISCREPANCY (PERCENT) =  0.3527246E-04
                                              FLOW ERR (QIN-QOUT-DV) = -0.9536743E-06 [L3/T]




 >>>>>>>>>>>>>>>>>>>>>>>>>>>>>>>>>>>>>>>>>>>>>>>>>>>>>>>FOR COMPONENT NO. 01<<<<<<<<<<<<<<<<<<<<<<<<<<<<<<<<<<<<<<<<<<<<<<<<<<<<<<<


                                            -------------------------------------------
                                                      TRANSPORT STEP NO.    8
                                            -------------------------------------------

 TOTAL ELAPSED TIME SINCE BEGINNING OF SIMULATION =   32040.00    D   
 .....................................................................

                     CUMULATIVE MASS BUDGETS AT END OF TRANSPORT STEP    8, TIME STEP    1, STRESS PERIOD    2
                     -----------------------------------------------------------------------------------------

                                                             IN                           OUT
                                                      ----------------             ----------------
                               CONSTANT CONCENTRATION:    0.000000                    0.000000    
                                        CONSTANT HEAD:    399.9302                   -222.1063    
                                               STREAM:    0.000000                   -177.8289    
                               MASS STOR (FLOW MODEL):   0.5160177E-02              -0.6986623E-07
                                MASS STORAGE (SOLUTE):    0.000000                    0.000000    
                            ---------------------------------------------------------------------------
                                              [TOTAL]:    399.9354     KG            -399.9352     KG  

                                                          NET (IN - OUT):   0.1220703E-03
                                                   DISCREPANCY (PERCENT):   0.3052251E-04
     2 CALLS TO GCG PACKAGE FOR TRANSPORT TIME STEP     9 IN FLOW TIME STEP     1 STRESS PERIOD     2
      2 TOTAL ITERATIONS
  MAXIMUM CONCENTRATION CHANGES FOR EACH ITERATION:
  MAX. CHANGE LAYER,ROW,COL MAX. CHANGE LAYER,ROW,COL MAX. CHANGE LAYER,ROW,COL MAX. CHANGE LAYER,ROW,COL MAX. CHANGE LAYER,ROW,COL
 ------------------------------------------------------------------------------------------------------------------------------------
    0.000     (  1,  1,  1)   0.000     (  1,  1,  1)


                     STREAM MASS BUDGETS AT END OF TRANSPORT STEP    9, TIME STEP    1, STRESS PERIOD    2 FOR COMPONENT   1
                     -------------------------------------------------------------------------------------------------------

                                         CUMULATIVE MASS [M]                                     MASS FOR THIS TIME STEP [M]
                                         -------------------                                    --------------
                      STREAM DEPLETION =   4.430484                          STREAM DEPLETION =  0.3294949    
                      INFLOW TO STREAM =   1646.099                          INFLOW TO STREAM =   25.65000    
                          GW TO STREAM =   178.8279                              GW TO STREAM =  0.9990391    
                         PRECIPITATION =   0.000000                             PRECIPITATION =   0.000000    
                                RUNOFF =   0.000000                                    RUNOFF =   0.000000    
                CONSTANT CONCENTRATION =   0.000000                    CONSTANT CONCENTRATION =   0.000000    
                             MASS GAIN =   0.000000                                 MASS GAIN =   0.000000    
                                         -------------------                                    --------------
                              TOTAL IN =   1829.357                                  TOTAL IN =   26.97853    

                   STREAM ACCUMULATION =   160.3566                       STREAM ACCUMULATION =   17.65448    
                        STREAM OUTFLOW =   1669.006                            STREAM OUTFLOW =   9.324040    
                          STREAM TO GW =   0.000000                              STREAM TO GW =   0.000000    
                CONSTANT CONCENTRATION =   0.000000                    CONSTANT CONCENTRATION =   0.000000    
                           EVAPORATION =   0.000000                               EVAPORATION =   0.000000    
                             MASS LOSS =   0.000000                                 MASS LOSS =   0.000000    
                                         -------------------                                    --------------
                             TOTAL OUT =   1829.363                                 TOTAL OUT =   26.97852    

                        NET (IN - OUT) = -0.5615234E-02                        NET (IN - OUT) =  0.9536743E-05
                 DISCREPANCY (PERCENT) = -0.3069507E-03                 DISCREPANCY (PERCENT) =  0.3534939E-04
                                              FLOW ERR (QIN-QOUT-DV) = -0.9536743E-06 [L3/T]




 >>>>>>>>>>>>>>>>>>>>>>>>>>>>>>>>>>>>>>>>>>>>>>>>>>>>>>>FOR COMPONENT NO. 01<<<<<<<<<<<<<<<<<<<<<<<<<<<<<<<<<<<<<<<<<<<<<<<<<<<<<<<


                                            -------------------------------------------
                                                      TRANSPORT STEP NO.    9
                                            -------------------------------------------

 TOTAL ELAPSED TIME SINCE BEGINNING OF SIMULATION =   32220.00    D   
 .....................................................................

                     CUMULATIVE MASS BUDGETS AT END OF TRANSPORT STEP    9, TIME STEP    1, STRESS PERIOD    2
                     -----------------------------------------------------------------------------------------

                                                             IN                           OUT
                                                      ----------------             ----------------
                               CONSTANT CONCENTRATION:    0.000000                    0.000000    
                                        CONSTANT HEAD:    402.1770                   -223.3541    
                                               STREAM:    0.000000                   -178.8279    
                               MASS STOR (FLOW MODEL):   0.5160203E-02              -0.6986623E-07
                                MASS STORAGE (SOLUTE):    0.000000                    0.000000    
                            ---------------------------------------------------------------------------
                                              [TOTAL]:    402.1822     KG            -402.1821     KG  

                                                          NET (IN - OUT):   0.1220703E-03
                                                   DISCREPANCY (PERCENT):   0.3035200E-04
     2 CALLS TO GCG PACKAGE FOR TRANSPORT TIME STEP    10 IN FLOW TIME STEP     1 STRESS PERIOD     2
      2 TOTAL ITERATIONS
  MAXIMUM CONCENTRATION CHANGES FOR EACH ITERATION:
  MAX. CHANGE LAYER,ROW,COL MAX. CHANGE LAYER,ROW,COL MAX. CHANGE LAYER,ROW,COL MAX. CHANGE LAYER,ROW,COL MAX. CHANGE LAYER,ROW,COL
 ------------------------------------------------------------------------------------------------------------------------------------
    0.000     (  1,  1,  1)   0.000     (  1,  1,  1)


                     STREAM MASS BUDGETS AT END OF TRANSPORT STEP   10, TIME STEP    1, STRESS PERIOD    2 FOR COMPONENT   1
                     -------------------------------------------------------------------------------------------------------

                                         CUMULATIVE MASS [M]                                     MASS FOR THIS TIME STEP [M]
                                         -------------------                                    --------------
                      STREAM DEPLETION =   4.726102                          STREAM DEPLETION =  0.2956187    
                      INFLOW TO STREAM =   1671.749                          INFLOW TO STREAM =   25.65000    
                          GW TO STREAM =   179.8270                              GW TO STREAM =  0.9990391    
                         PRECIPITATION =   0.000000                             PRECIPITATION =   0.000000    
                                RUNOFF =   0.000000                                    RUNOFF =   0.000000    
                CONSTANT CONCENTRATION =   0.000000                    CONSTANT CONCENTRATION =   0.000000    
                             MASS GAIN =   0.000000                                 MASS GAIN =   0.000000    
                                         -------------------                                    --------------
                              TOTAL IN =   1856.302                                  TOTAL IN =   26.94466    

                   STREAM ACCUMULATION =   177.9772                       STREAM ACCUMULATION =   17.62062    
                        STREAM OUTFLOW =   1678.331                            STREAM OUTFLOW =   9.324040    
                          STREAM TO GW =   0.000000                              STREAM TO GW =   0.000000    
                CONSTANT CONCENTRATION =   0.000000                    CONSTANT CONCENTRATION =   0.000000    
                           EVAPORATION =   0.000000                               EVAPORATION =   0.000000    
                             MASS LOSS =   0.000000                                 MASS LOSS =   0.000000    
                                         -------------------                                    --------------
                             TOTAL OUT =   1856.308                                 TOTAL OUT =   26.94466    

                        NET (IN - OUT) = -0.5737305E-02                        NET (IN - OUT) =   0.000000    
                 DISCREPANCY (PERCENT) = -0.3090712E-03                 DISCREPANCY (PERCENT) =   0.000000    
                                              FLOW ERR (QIN-QOUT-DV) = -0.9536743E-06 [L3/T]




 >>>>>>>>>>>>>>>>>>>>>>>>>>>>>>>>>>>>>>>>>>>>>>>>>>>>>>>FOR COMPONENT NO. 01<<<<<<<<<<<<<<<<<<<<<<<<<<<<<<<<<<<<<<<<<<<<<<<<<<<<<<<


                                            -------------------------------------------
                                                      TRANSPORT STEP NO.   10
                                            -------------------------------------------

 TOTAL ELAPSED TIME SINCE BEGINNING OF SIMULATION =   32400.00    D   
 .....................................................................

                     CUMULATIVE MASS BUDGETS AT END OF TRANSPORT STEP   10, TIME STEP    1, STRESS PERIOD    2
                     -----------------------------------------------------------------------------------------

                                                             IN                           OUT
                                                      ----------------             ----------------
                               CONSTANT CONCENTRATION:    0.000000                    0.000000    
                                        CONSTANT HEAD:    404.4239                   -224.6019    
                                               STREAM:    0.000000                   -179.8270    
                               MASS STOR (FLOW MODEL):   0.5160228E-02              -0.6986623E-07
                                MASS STORAGE (SOLUTE):    0.000000                    0.000000    
                            ---------------------------------------------------------------------------
                                              [TOTAL]:    404.4290     KG            -404.4289     KG  

                                                          NET (IN - OUT):   0.1220703E-03
                                                   DISCREPANCY (PERCENT):   0.3018338E-04
     2 CALLS TO GCG PACKAGE FOR TRANSPORT TIME STEP    11 IN FLOW TIME STEP     1 STRESS PERIOD     2
      2 TOTAL ITERATIONS
  MAXIMUM CONCENTRATION CHANGES FOR EACH ITERATION:
  MAX. CHANGE LAYER,ROW,COL MAX. CHANGE LAYER,ROW,COL MAX. CHANGE LAYER,ROW,COL MAX. CHANGE LAYER,ROW,COL MAX. CHANGE LAYER,ROW,COL
 ------------------------------------------------------------------------------------------------------------------------------------
    0.000     (  1,  1,  1)   0.000     (  1,  1,  1)


                     STREAM MASS BUDGETS AT END OF TRANSPORT STEP   11, TIME STEP    1, STRESS PERIOD    2 FOR COMPONENT   1
                     -------------------------------------------------------------------------------------------------------

                                         CUMULATIVE MASS [M]                                     MASS FOR THIS TIME STEP [M]
                                         -------------------                                    --------------
                      STREAM DEPLETION =   4.992298                          STREAM DEPLETION =  0.2661957    
                      INFLOW TO STREAM =   1697.399                          INFLOW TO STREAM =   25.65000    
                          GW TO STREAM =   180.8260                              GW TO STREAM =  0.9990391    
                         PRECIPITATION =   0.000000                             PRECIPITATION =   0.000000    
                                RUNOFF =   0.000000                                    RUNOFF =   0.000000    
                CONSTANT CONCENTRATION =   0.000000                    CONSTANT CONCENTRATION =   0.000000    
                             MASS GAIN =   0.000000                                 MASS GAIN =   0.000000    
                                         -------------------                                    --------------
                              TOTAL IN =   1883.217                                  TOTAL IN =   26.91523    

                   STREAM ACCUMULATION =   195.5684                       STREAM ACCUMULATION =   17.59117    
                        STREAM OUTFLOW =   1687.655                            STREAM OUTFLOW =   9.324040    
                          STREAM TO GW =   0.000000                              STREAM TO GW =   0.000000    
                CONSTANT CONCENTRATION =   0.000000                    CONSTANT CONCENTRATION =   0.000000    
                           EVAPORATION =   0.000000                               EVAPORATION =   0.000000    
                             MASS LOSS =   0.000000                                 MASS LOSS =   0.000000    
                                         -------------------                                    --------------
                             TOTAL OUT =   1883.223                                 TOTAL OUT =   26.91521    

                        NET (IN - OUT) = -0.5615234E-02                        NET (IN - OUT) =  0.1907349E-04
                 DISCREPANCY (PERCENT) = -0.2981719E-03                 DISCREPANCY (PERCENT) =  0.7086505E-04
                                              FLOW ERR (QIN-QOUT-DV) = -0.9536743E-06 [L3/T]




 >>>>>>>>>>>>>>>>>>>>>>>>>>>>>>>>>>>>>>>>>>>>>>>>>>>>>>>FOR COMPONENT NO. 01<<<<<<<<<<<<<<<<<<<<<<<<<<<<<<<<<<<<<<<<<<<<<<<<<<<<<<<


                                            -------------------------------------------
                                                      TRANSPORT STEP NO.   11
                                            -------------------------------------------

 TOTAL ELAPSED TIME SINCE BEGINNING OF SIMULATION =   32580.00    D   
 .....................................................................

                     CUMULATIVE MASS BUDGETS AT END OF TRANSPORT STEP   11, TIME STEP    1, STRESS PERIOD    2
                     -----------------------------------------------------------------------------------------

                                                             IN                           OUT
                                                      ----------------             ----------------
                               CONSTANT CONCENTRATION:    0.000000                    0.000000    
                                        CONSTANT HEAD:    406.6707                   -225.8497    
                                               STREAM:    0.000000                   -180.8260    
                               MASS STOR (FLOW MODEL):   0.5160254E-02              -0.6986623E-07
                                MASS STORAGE (SOLUTE):    0.000000                    0.000000    
                            ---------------------------------------------------------------------------
                                              [TOTAL]:    406.6758     KG            -406.6757     KG  

                                                          NET (IN - OUT):   0.1220703E-03
                                                   DISCREPANCY (PERCENT):   0.3001662E-04
     2 CALLS TO GCG PACKAGE FOR TRANSPORT TIME STEP    12 IN FLOW TIME STEP     1 STRESS PERIOD     2
      2 TOTAL ITERATIONS
  MAXIMUM CONCENTRATION CHANGES FOR EACH ITERATION:
  MAX. CHANGE LAYER,ROW,COL MAX. CHANGE LAYER,ROW,COL MAX. CHANGE LAYER,ROW,COL MAX. CHANGE LAYER,ROW,COL MAX. CHANGE LAYER,ROW,COL
 ------------------------------------------------------------------------------------------------------------------------------------
    0.000     (  1,  1,  1)   0.000     (  1,  1,  1)


                     STREAM MASS BUDGETS AT END OF TRANSPORT STEP   12, TIME STEP    1, STRESS PERIOD    2 FOR COMPONENT   1
                     -------------------------------------------------------------------------------------------------------

                                         CUMULATIVE MASS [M]                                     MASS FOR THIS TIME STEP [M]
                                         -------------------                                    --------------
                      STREAM DEPLETION =   5.227183                          STREAM DEPLETION =  0.2348845    
                      INFLOW TO STREAM =   1723.049                          INFLOW TO STREAM =   25.65000    
                          GW TO STREAM =   181.8251                              GW TO STREAM =  0.9990391    
                         PRECIPITATION =   0.000000                             PRECIPITATION =   0.000000    
                                RUNOFF =   0.000000                                    RUNOFF =   0.000000    
                CONSTANT CONCENTRATION =   0.000000                    CONSTANT CONCENTRATION =   0.000000    
                             MASS GAIN =   0.000000                                 MASS GAIN =   0.000000    
                                         -------------------                                    --------------
                              TOTAL IN =   1910.101                                  TOTAL IN =   26.88392    

                   STREAM ACCUMULATION =   213.1283                       STREAM ACCUMULATION =   17.55989    
                        STREAM OUTFLOW =   1696.979                            STREAM OUTFLOW =   9.324040    
                          STREAM TO GW =   0.000000                              STREAM TO GW =   0.000000    
                CONSTANT CONCENTRATION =   0.000000                    CONSTANT CONCENTRATION =   0.000000    
                           EVAPORATION =   0.000000                               EVAPORATION =   0.000000    
                             MASS LOSS =   0.000000                                 MASS LOSS =   0.000000    
                                         -------------------                                    --------------
                             TOTAL OUT =   1910.107                                 TOTAL OUT =   26.88393    

                        NET (IN - OUT) = -0.5737305E-02                        NET (IN - OUT) = -0.3814697E-05
                 DISCREPANCY (PERCENT) = -0.3003661E-03                 DISCREPANCY (PERCENT) = -0.1418951E-04
                                              FLOW ERR (QIN-QOUT-DV) = -0.9536743E-06 [L3/T]




 >>>>>>>>>>>>>>>>>>>>>>>>>>>>>>>>>>>>>>>>>>>>>>>>>>>>>>>FOR COMPONENT NO. 01<<<<<<<<<<<<<<<<<<<<<<<<<<<<<<<<<<<<<<<<<<<<<<<<<<<<<<<


                                            -------------------------------------------
                                                      TRANSPORT STEP NO.   12
                                            -------------------------------------------

 TOTAL ELAPSED TIME SINCE BEGINNING OF SIMULATION =   32760.00    D   
 .....................................................................

                     CUMULATIVE MASS BUDGETS AT END OF TRANSPORT STEP   12, TIME STEP    1, STRESS PERIOD    2
                     -----------------------------------------------------------------------------------------

                                                             IN                           OUT
                                                      ----------------             ----------------
                               CONSTANT CONCENTRATION:    0.000000                    0.000000    
                                        CONSTANT HEAD:    408.9175                   -227.0975    
                                               STREAM:    0.000000                   -181.8251    
                               MASS STOR (FLOW MODEL):   0.5160280E-02              -0.6986623E-07
                                MASS STORAGE (SOLUTE):    0.000000                    0.000000    
                            ---------------------------------------------------------------------------
                                              [TOTAL]:    408.9227     KG            -408.9225     KG  

                                                          NET (IN - OUT):   0.1220703E-03
                                                   DISCREPANCY (PERCENT):   0.2985169E-04
     2 CALLS TO GCG PACKAGE FOR TRANSPORT TIME STEP    13 IN FLOW TIME STEP     1 STRESS PERIOD     2
      2 TOTAL ITERATIONS
  MAXIMUM CONCENTRATION CHANGES FOR EACH ITERATION:
  MAX. CHANGE LAYER,ROW,COL MAX. CHANGE LAYER,ROW,COL MAX. CHANGE LAYER,ROW,COL MAX. CHANGE LAYER,ROW,COL MAX. CHANGE LAYER,ROW,COL
 ------------------------------------------------------------------------------------------------------------------------------------
    0.000     (  1,  1,  1)   0.000     (  1,  1,  1)


                     STREAM MASS BUDGETS AT END OF TRANSPORT STEP   13, TIME STEP    1, STRESS PERIOD    2 FOR COMPONENT   1
                     -------------------------------------------------------------------------------------------------------

                                         CUMULATIVE MASS [M]                                     MASS FOR THIS TIME STEP [M]
                                         -------------------                                    --------------
                      STREAM DEPLETION =   5.435874                          STREAM DEPLETION =  0.2086905    
                      INFLOW TO STREAM =   1748.699                          INFLOW TO STREAM =   25.65000    
                          GW TO STREAM =   182.8241                              GW TO STREAM =  0.9990391    
                         PRECIPITATION =   0.000000                             PRECIPITATION =   0.000000    
                                RUNOFF =   0.000000                                    RUNOFF =   0.000000    
                CONSTANT CONCENTRATION =   0.000000                    CONSTANT CONCENTRATION =   0.000000    
                             MASS GAIN =   0.000000                                 MASS GAIN =   0.000000    
                                         -------------------                                    --------------
                              TOTAL IN =   1936.959                                  TOTAL IN =   26.85773    

                   STREAM ACCUMULATION =   230.6620                       STREAM ACCUMULATION =   17.53368    
                        STREAM OUTFLOW =   1706.303                            STREAM OUTFLOW =   9.324040    
                          STREAM TO GW =   0.000000                              STREAM TO GW =   0.000000    
                CONSTANT CONCENTRATION =   0.000000                    CONSTANT CONCENTRATION =   0.000000    
                           EVAPORATION =   0.000000                               EVAPORATION =   0.000000    
                             MASS LOSS =   0.000000                                 MASS LOSS =   0.000000    
                                         -------------------                                    --------------
                             TOTAL OUT =   1936.965                                 TOTAL OUT =   26.85772    

                        NET (IN - OUT) = -0.5737305E-02                        NET (IN - OUT) =  0.9536743E-05
                 DISCREPANCY (PERCENT) = -0.2962012E-03                 DISCREPANCY (PERCENT) =  0.3550838E-04
                                              FLOW ERR (QIN-QOUT-DV) = -0.9536743E-06 [L3/T]




 >>>>>>>>>>>>>>>>>>>>>>>>>>>>>>>>>>>>>>>>>>>>>>>>>>>>>>>FOR COMPONENT NO. 01<<<<<<<<<<<<<<<<<<<<<<<<<<<<<<<<<<<<<<<<<<<<<<<<<<<<<<<


                                            -------------------------------------------
                                                      TRANSPORT STEP NO.   13
                                            -------------------------------------------

 TOTAL ELAPSED TIME SINCE BEGINNING OF SIMULATION =   32940.00    D   
 .....................................................................

                     CUMULATIVE MASS BUDGETS AT END OF TRANSPORT STEP   13, TIME STEP    1, STRESS PERIOD    2
                     -----------------------------------------------------------------------------------------

                                                             IN                           OUT
                                                      ----------------             ----------------
                               CONSTANT CONCENTRATION:    0.000000                    0.000000    
                                        CONSTANT HEAD:    411.1643                   -228.3453    
                                               STREAM:    0.000000                   -182.8241    
                               MASS STOR (FLOW MODEL):   0.5160305E-02              -0.6986623E-07
                                MASS STORAGE (SOLUTE):    0.000000                    0.000000    
                            ---------------------------------------------------------------------------
                                              [TOTAL]:    411.1695     KG            -411.1694     KG  

                                                          NET (IN - OUT):   0.1220703E-03
                                                   DISCREPANCY (PERCENT):   0.2968857E-04
     2 CALLS TO GCG PACKAGE FOR TRANSPORT TIME STEP    14 IN FLOW TIME STEP     1 STRESS PERIOD     2
      2 TOTAL ITERATIONS
  MAXIMUM CONCENTRATION CHANGES FOR EACH ITERATION:
  MAX. CHANGE LAYER,ROW,COL MAX. CHANGE LAYER,ROW,COL MAX. CHANGE LAYER,ROW,COL MAX. CHANGE LAYER,ROW,COL MAX. CHANGE LAYER,ROW,COL
 ------------------------------------------------------------------------------------------------------------------------------------
    0.000     (  1,  1,  1)   0.000     (  1,  1,  1)


                     STREAM MASS BUDGETS AT END OF TRANSPORT STEP   14, TIME STEP    1, STRESS PERIOD    2 FOR COMPONENT   1
                     -------------------------------------------------------------------------------------------------------

                                         CUMULATIVE MASS [M]                                     MASS FOR THIS TIME STEP [M]
                                         -------------------                                    --------------
                      STREAM DEPLETION =   5.620334                          STREAM DEPLETION =  0.1844603    
                      INFLOW TO STREAM =   1774.349                          INFLOW TO STREAM =   25.65000    
                          GW TO STREAM =   183.8231                              GW TO STREAM =  0.9990391    
                         PRECIPITATION =   0.000000                             PRECIPITATION =   0.000000    
                                RUNOFF =   0.000000                                    RUNOFF =   0.000000    
                CONSTANT CONCENTRATION =   0.000000                    CONSTANT CONCENTRATION =   0.000000    
                             MASS GAIN =   0.000000                                 MASS GAIN =   0.000000    
                                         -------------------                                    --------------
                              TOTAL IN =   1963.793                                  TOTAL IN =   26.83350    

                   STREAM ACCUMULATION =   248.1714                       STREAM ACCUMULATION =   17.50946    
                        STREAM OUTFLOW =   1715.627                            STREAM OUTFLOW =   9.324040    
                          STREAM TO GW =   0.000000                              STREAM TO GW =   0.000000    
                CONSTANT CONCENTRATION =   0.000000                    CONSTANT CONCENTRATION =   0.000000    
                           EVAPORATION =   0.000000                               EVAPORATION =   0.000000    
                             MASS LOSS =   0.000000                                 MASS LOSS =   0.000000    
                                         -------------------                                    --------------
                             TOTAL OUT =   1963.798                                 TOTAL OUT =   26.83350    

                        NET (IN - OUT) = -0.5737305E-02                        NET (IN - OUT) = -0.5722046E-05
                 DISCREPANCY (PERCENT) = -0.2921539E-03                 DISCREPANCY (PERCENT) = -0.2132426E-04
                                              FLOW ERR (QIN-QOUT-DV) = -0.9536743E-06 [L3/T]




 >>>>>>>>>>>>>>>>>>>>>>>>>>>>>>>>>>>>>>>>>>>>>>>>>>>>>>>FOR COMPONENT NO. 01<<<<<<<<<<<<<<<<<<<<<<<<<<<<<<<<<<<<<<<<<<<<<<<<<<<<<<<


                                            -------------------------------------------
                                                      TRANSPORT STEP NO.   14
                                            -------------------------------------------

 TOTAL ELAPSED TIME SINCE BEGINNING OF SIMULATION =   33120.00    D   
 .....................................................................

                     CUMULATIVE MASS BUDGETS AT END OF TRANSPORT STEP   14, TIME STEP    1, STRESS PERIOD    2
                     -----------------------------------------------------------------------------------------

                                                             IN                           OUT
                                                      ----------------             ----------------
                               CONSTANT CONCENTRATION:    0.000000                    0.000000    
                                        CONSTANT HEAD:    413.4112                   -229.5930    
                                               STREAM:    0.000000                   -183.8231    
                               MASS STOR (FLOW MODEL):   0.5160331E-02              -0.6986623E-07
                                MASS STORAGE (SOLUTE):    0.000000                    0.000000    
                            ---------------------------------------------------------------------------
                                              [TOTAL]:    413.4163     KG            -413.4162     KG  

                                                          NET (IN - OUT):   0.1220703E-03
                                                   DISCREPANCY (PERCENT):   0.2952722E-04
     2 CALLS TO GCG PACKAGE FOR TRANSPORT TIME STEP    15 IN FLOW TIME STEP     1 STRESS PERIOD     2
      2 TOTAL ITERATIONS
  MAXIMUM CONCENTRATION CHANGES FOR EACH ITERATION:
  MAX. CHANGE LAYER,ROW,COL MAX. CHANGE LAYER,ROW,COL MAX. CHANGE LAYER,ROW,COL MAX. CHANGE LAYER,ROW,COL MAX. CHANGE LAYER,ROW,COL
 ------------------------------------------------------------------------------------------------------------------------------------
    0.000     (  1,  1,  1)   0.000     (  1,  1,  1)


                     STREAM MASS BUDGETS AT END OF TRANSPORT STEP   15, TIME STEP    1, STRESS PERIOD    2 FOR COMPONENT   1
                     -------------------------------------------------------------------------------------------------------

                                         CUMULATIVE MASS [M]                                     MASS FOR THIS TIME STEP [M]
                                         -------------------                                    --------------
                      STREAM DEPLETION =   5.786252                          STREAM DEPLETION =  0.1659178    
                      INFLOW TO STREAM =   1799.999                          INFLOW TO STREAM =   25.65000    
                          GW TO STREAM =   184.8222                              GW TO STREAM =  0.9990391    
                         PRECIPITATION =   0.000000                             PRECIPITATION =   0.000000    
                                RUNOFF =   0.000000                                    RUNOFF =   0.000000    
                CONSTANT CONCENTRATION =   0.000000                    CONSTANT CONCENTRATION =   0.000000    
                             MASS GAIN =   0.000000                                 MASS GAIN =   0.000000    
                                         -------------------                                    --------------
                              TOTAL IN =   1990.608                                  TOTAL IN =   26.81496    

                   STREAM ACCUMULATION =   265.6624                       STREAM ACCUMULATION =   17.49091    
                        STREAM OUTFLOW =   1724.951                            STREAM OUTFLOW =   9.324040    
                          STREAM TO GW =   0.000000                              STREAM TO GW =   0.000000    
                CONSTANT CONCENTRATION =   0.000000                    CONSTANT CONCENTRATION =   0.000000    
                           EVAPORATION =   0.000000                               EVAPORATION =   0.000000    
                             MASS LOSS =   0.000000                                 MASS LOSS =   0.000000    
                                         -------------------                                    --------------
                             TOTAL OUT =   1990.613                                 TOTAL OUT =   26.81495    

                        NET (IN - OUT) = -0.5859375E-02                        NET (IN - OUT) =  0.3814697E-05
                 DISCREPANCY (PERCENT) = -0.2943507E-03                 DISCREPANCY (PERCENT) =  0.1422601E-04
                                              FLOW ERR (QIN-QOUT-DV) = -0.9536743E-06 [L3/T]




 >>>>>>>>>>>>>>>>>>>>>>>>>>>>>>>>>>>>>>>>>>>>>>>>>>>>>>>FOR COMPONENT NO. 01<<<<<<<<<<<<<<<<<<<<<<<<<<<<<<<<<<<<<<<<<<<<<<<<<<<<<<<


                                            -------------------------------------------
                                                      TRANSPORT STEP NO.   15
                                            -------------------------------------------

 TOTAL ELAPSED TIME SINCE BEGINNING OF SIMULATION =   33300.00    D   
 .....................................................................

                     CUMULATIVE MASS BUDGETS AT END OF TRANSPORT STEP   15, TIME STEP    1, STRESS PERIOD    2
                     -----------------------------------------------------------------------------------------

                                                             IN                           OUT
                                                      ----------------             ----------------
                               CONSTANT CONCENTRATION:    0.000000                    0.000000    
                                        CONSTANT HEAD:    415.6580                   -230.8408    
                                               STREAM:    0.000000                   -184.8222    
                               MASS STOR (FLOW MODEL):   0.5160356E-02              -0.6986623E-07
                                MASS STORAGE (SOLUTE):    0.000000                    0.000000    
                            ---------------------------------------------------------------------------
                                              [TOTAL]:    415.6631     KG            -415.6630     KG  

                                                          NET (IN - OUT):   0.1220703E-03
                                                   DISCREPANCY (PERCENT):   0.2936761E-04
     2 CALLS TO GCG PACKAGE FOR TRANSPORT TIME STEP    16 IN FLOW TIME STEP     1 STRESS PERIOD     2
      2 TOTAL ITERATIONS
  MAXIMUM CONCENTRATION CHANGES FOR EACH ITERATION:
  MAX. CHANGE LAYER,ROW,COL MAX. CHANGE LAYER,ROW,COL MAX. CHANGE LAYER,ROW,COL MAX. CHANGE LAYER,ROW,COL MAX. CHANGE LAYER,ROW,COL
 ------------------------------------------------------------------------------------------------------------------------------------
    0.000     (  1,  1,  1)   0.000     (  1,  1,  1)


                     STREAM MASS BUDGETS AT END OF TRANSPORT STEP   16, TIME STEP    1, STRESS PERIOD    2 FOR COMPONENT   1
                     -------------------------------------------------------------------------------------------------------

                                         CUMULATIVE MASS [M]                                     MASS FOR THIS TIME STEP [M]
                                         -------------------                                    --------------
                      STREAM DEPLETION =   5.938283                          STREAM DEPLETION =  0.1520313    
                      INFLOW TO STREAM =   1825.649                          INFLOW TO STREAM =   25.65000    
                          GW TO STREAM =   185.8212                              GW TO STREAM =  0.9990391    
                         PRECIPITATION =   0.000000                             PRECIPITATION =   0.000000    
                                RUNOFF =   0.000000                                    RUNOFF =   0.000000    
                CONSTANT CONCENTRATION =   0.000000                    CONSTANT CONCENTRATION =   0.000000    
                             MASS GAIN =   0.000000                                 MASS GAIN =   0.000000    
                                         -------------------                                    --------------
                              TOTAL IN =   2017.409                                  TOTAL IN =   26.80107    

                   STREAM ACCUMULATION =   283.1394                       STREAM ACCUMULATION =   17.47703    
                        STREAM OUTFLOW =   1734.275                            STREAM OUTFLOW =   9.324040    
                          STREAM TO GW =   0.000000                              STREAM TO GW =   0.000000    
                CONSTANT CONCENTRATION =   0.000000                    CONSTANT CONCENTRATION =   0.000000    
                           EVAPORATION =   0.000000                               EVAPORATION =   0.000000    
                             MASS LOSS =   0.000000                                 MASS LOSS =   0.000000    
                                         -------------------                                    --------------
                             TOTAL OUT =   2017.415                                 TOTAL OUT =   26.80107    

                        NET (IN - OUT) = -0.5859375E-02                        NET (IN - OUT) = -0.1907349E-05
                 DISCREPANCY (PERCENT) = -0.2904402E-03                 DISCREPANCY (PERCENT) = -0.7116688E-05
                                              FLOW ERR (QIN-QOUT-DV) = -0.9536743E-06 [L3/T]




 >>>>>>>>>>>>>>>>>>>>>>>>>>>>>>>>>>>>>>>>>>>>>>>>>>>>>>>FOR COMPONENT NO. 01<<<<<<<<<<<<<<<<<<<<<<<<<<<<<<<<<<<<<<<<<<<<<<<<<<<<<<<


                                            -------------------------------------------
                                                      TRANSPORT STEP NO.   16
                                            -------------------------------------------

 TOTAL ELAPSED TIME SINCE BEGINNING OF SIMULATION =   33480.00    D   
 .....................................................................

                     CUMULATIVE MASS BUDGETS AT END OF TRANSPORT STEP   16, TIME STEP    1, STRESS PERIOD    2
                     -----------------------------------------------------------------------------------------

                                                             IN                           OUT
                                                      ----------------             ----------------
                               CONSTANT CONCENTRATION:    0.000000                    0.000000    
                                        CONSTANT HEAD:    417.9048                   -232.0886    
                                               STREAM:    0.000000                   -185.8212    
                               MASS STOR (FLOW MODEL):   0.5160382E-02              -0.6986623E-07
                                MASS STORAGE (SOLUTE):    0.000000                    0.000000    
                            ---------------------------------------------------------------------------
                                              [TOTAL]:    417.9100     KG            -417.9099     KG  

                                                          NET (IN - OUT):   0.1220703E-03
                                                   DISCREPANCY (PERCENT):   0.2920972E-04
     2 CALLS TO GCG PACKAGE FOR TRANSPORT TIME STEP    17 IN FLOW TIME STEP     1 STRESS PERIOD     2
      2 TOTAL ITERATIONS
  MAXIMUM CONCENTRATION CHANGES FOR EACH ITERATION:
  MAX. CHANGE LAYER,ROW,COL MAX. CHANGE LAYER,ROW,COL MAX. CHANGE LAYER,ROW,COL MAX. CHANGE LAYER,ROW,COL MAX. CHANGE LAYER,ROW,COL
 ------------------------------------------------------------------------------------------------------------------------------------
    0.000     (  1,  1,  1)   0.000     (  1,  1,  1)


                     STREAM MASS BUDGETS AT END OF TRANSPORT STEP   17, TIME STEP    1, STRESS PERIOD    2 FOR COMPONENT   1
                     -------------------------------------------------------------------------------------------------------

                                         CUMULATIVE MASS [M]                                     MASS FOR THIS TIME STEP [M]
                                         -------------------                                    --------------
                      STREAM DEPLETION =   6.076940                          STREAM DEPLETION =  0.1386569    
                      INFLOW TO STREAM =   1851.299                          INFLOW TO STREAM =   25.65000    
                          GW TO STREAM =   186.8203                              GW TO STREAM =  0.9990391    
                         PRECIPITATION =   0.000000                             PRECIPITATION =   0.000000    
                                RUNOFF =   0.000000                                    RUNOFF =   0.000000    
                CONSTANT CONCENTRATION =   0.000000                    CONSTANT CONCENTRATION =   0.000000    
                             MASS GAIN =   0.000000                                 MASS GAIN =   0.000000    
                                         -------------------                                    --------------
                              TOTAL IN =   2044.196                                  TOTAL IN =   26.78769    

                   STREAM ACCUMULATION =   300.6030                       STREAM ACCUMULATION =   17.46366    
                        STREAM OUTFLOW =   1743.599                            STREAM OUTFLOW =   9.324040    
                          STREAM TO GW =   0.000000                              STREAM TO GW =   0.000000    
                CONSTANT CONCENTRATION =   0.000000                    CONSTANT CONCENTRATION =   0.000000    
                           EVAPORATION =   0.000000                               EVAPORATION =   0.000000    
                             MASS LOSS =   0.000000                                 MASS LOSS =   0.000000    
                                         -------------------                                    --------------
                             TOTAL OUT =   2044.202                                 TOTAL OUT =   26.78770    

                        NET (IN - OUT) = -0.5859375E-02                        NET (IN - OUT) = -0.9536743E-05
                 DISCREPANCY (PERCENT) = -0.2866342E-03                 DISCREPANCY (PERCENT) = -0.3560120E-04
                                              FLOW ERR (QIN-QOUT-DV) = -0.9536743E-06 [L3/T]




 >>>>>>>>>>>>>>>>>>>>>>>>>>>>>>>>>>>>>>>>>>>>>>>>>>>>>>>FOR COMPONENT NO. 01<<<<<<<<<<<<<<<<<<<<<<<<<<<<<<<<<<<<<<<<<<<<<<<<<<<<<<<


                                            -------------------------------------------
                                                      TRANSPORT STEP NO.   17
                                            -------------------------------------------

 TOTAL ELAPSED TIME SINCE BEGINNING OF SIMULATION =   33660.00    D   
 .....................................................................

                     CUMULATIVE MASS BUDGETS AT END OF TRANSPORT STEP   17, TIME STEP    1, STRESS PERIOD    2
                     -----------------------------------------------------------------------------------------

                                                             IN                           OUT
                                                      ----------------             ----------------
                               CONSTANT CONCENTRATION:    0.000000                    0.000000    
                                        CONSTANT HEAD:    420.1516                   -233.3364    
                                               STREAM:    0.000000                   -186.8203    
                               MASS STOR (FLOW MODEL):   0.5160408E-02              -0.6986623E-07
                                MASS STORAGE (SOLUTE):    0.000000                    0.000000    
                            ---------------------------------------------------------------------------
                                              [TOTAL]:    420.1568     KG            -420.1567     KG  

                                                          NET (IN - OUT):   0.1220703E-03
                                                   DISCREPANCY (PERCENT):   0.2905352E-04
     2 CALLS TO GCG PACKAGE FOR TRANSPORT TIME STEP    18 IN FLOW TIME STEP     1 STRESS PERIOD     2
      2 TOTAL ITERATIONS
  MAXIMUM CONCENTRATION CHANGES FOR EACH ITERATION:
  MAX. CHANGE LAYER,ROW,COL MAX. CHANGE LAYER,ROW,COL MAX. CHANGE LAYER,ROW,COL MAX. CHANGE LAYER,ROW,COL MAX. CHANGE LAYER,ROW,COL
 ------------------------------------------------------------------------------------------------------------------------------------
    0.000     (  1,  1,  1)   0.000     (  1,  1,  1)


                     STREAM MASS BUDGETS AT END OF TRANSPORT STEP   18, TIME STEP    1, STRESS PERIOD    2 FOR COMPONENT   1
                     -------------------------------------------------------------------------------------------------------

                                         CUMULATIVE MASS [M]                                     MASS FOR THIS TIME STEP [M]
                                         -------------------                                    --------------
                      STREAM DEPLETION =   6.202967                          STREAM DEPLETION =  0.1260271    
                      INFLOW TO STREAM =   1876.949                          INFLOW TO STREAM =   25.65000    
                          GW TO STREAM =   187.8193                              GW TO STREAM =  0.9990391    
                         PRECIPITATION =   0.000000                             PRECIPITATION =   0.000000    
                                RUNOFF =   0.000000                                    RUNOFF =   0.000000    
                CONSTANT CONCENTRATION =   0.000000                    CONSTANT CONCENTRATION =   0.000000    
                             MASS GAIN =   0.000000                                 MASS GAIN =   0.000000    
                                         -------------------                                    --------------
                              TOTAL IN =   2070.971                                  TOTAL IN =   26.77507    

                   STREAM ACCUMULATION =   318.0540                       STREAM ACCUMULATION =   17.45101    
                        STREAM OUTFLOW =   1752.923                            STREAM OUTFLOW =   9.324040    
                          STREAM TO GW =   0.000000                              STREAM TO GW =   0.000000    
                CONSTANT CONCENTRATION =   0.000000                    CONSTANT CONCENTRATION =   0.000000    
                           EVAPORATION =   0.000000                               EVAPORATION =   0.000000    
                             MASS LOSS =   0.000000                                 MASS LOSS =   0.000000    
                                         -------------------                                    --------------
                             TOTAL OUT =   2070.977                                 TOTAL OUT =   26.77505    

                        NET (IN - OUT) = -0.5859375E-02                        NET (IN - OUT) =  0.1525879E-04
                 DISCREPANCY (PERCENT) = -0.2829284E-03                 DISCREPANCY (PERCENT) =  0.5698882E-04
                                              FLOW ERR (QIN-QOUT-DV) = -0.9536743E-06 [L3/T]




 >>>>>>>>>>>>>>>>>>>>>>>>>>>>>>>>>>>>>>>>>>>>>>>>>>>>>>>FOR COMPONENT NO. 01<<<<<<<<<<<<<<<<<<<<<<<<<<<<<<<<<<<<<<<<<<<<<<<<<<<<<<<


                                            -------------------------------------------
                                                      TRANSPORT STEP NO.   18
                                            -------------------------------------------

 TOTAL ELAPSED TIME SINCE BEGINNING OF SIMULATION =   33840.00    D   
 .....................................................................

                     CUMULATIVE MASS BUDGETS AT END OF TRANSPORT STEP   18, TIME STEP    1, STRESS PERIOD    2
                     -----------------------------------------------------------------------------------------

                                                             IN                           OUT
                                                      ----------------             ----------------
                               CONSTANT CONCENTRATION:    0.000000                    0.000000    
                                        CONSTANT HEAD:    422.3985                   -234.5842    
                                               STREAM:    0.000000                   -187.8193    
                               MASS STOR (FLOW MODEL):   0.5160433E-02              -0.6986623E-07
                                MASS STORAGE (SOLUTE):    0.000000                    0.000000    
                            ---------------------------------------------------------------------------
                                              [TOTAL]:    422.4036     KG            -422.4035     KG  

                                                          NET (IN - OUT):   0.1220703E-03
                                                   DISCREPANCY (PERCENT):   0.2889898E-04
     2 CALLS TO GCG PACKAGE FOR TRANSPORT TIME STEP    19 IN FLOW TIME STEP     1 STRESS PERIOD     2
      2 TOTAL ITERATIONS
  MAXIMUM CONCENTRATION CHANGES FOR EACH ITERATION:
  MAX. CHANGE LAYER,ROW,COL MAX. CHANGE LAYER,ROW,COL MAX. CHANGE LAYER,ROW,COL MAX. CHANGE LAYER,ROW,COL MAX. CHANGE LAYER,ROW,COL
 ------------------------------------------------------------------------------------------------------------------------------------
    0.000     (  1,  1,  1)   0.000     (  1,  1,  1)


                     STREAM MASS BUDGETS AT END OF TRANSPORT STEP   19, TIME STEP    1, STRESS PERIOD    2 FOR COMPONENT   1
                     -------------------------------------------------------------------------------------------------------

                                         CUMULATIVE MASS [M]                                     MASS FOR THIS TIME STEP [M]
                                         -------------------                                    --------------
                      STREAM DEPLETION =   6.318064                          STREAM DEPLETION =  0.1150967    
                      INFLOW TO STREAM =   1902.599                          INFLOW TO STREAM =   25.65000    
                          GW TO STREAM =   188.8183                              GW TO STREAM =  0.9990391    
                         PRECIPITATION =   0.000000                             PRECIPITATION =   0.000000    
                                RUNOFF =   0.000000                                    RUNOFF =   0.000000    
                CONSTANT CONCENTRATION =   0.000000                    CONSTANT CONCENTRATION =   0.000000    
                             MASS GAIN =   0.000000                                 MASS GAIN =   0.000000    
                                         -------------------                                    --------------
                              TOTAL IN =   2097.736                                  TOTAL IN =   26.76414    

                   STREAM ACCUMULATION =   335.4941                       STREAM ACCUMULATION =   17.44008    
                        STREAM OUTFLOW =   1762.247                            STREAM OUTFLOW =   9.324040    
                          STREAM TO GW =   0.000000                              STREAM TO GW =   0.000000    
                CONSTANT CONCENTRATION =   0.000000                    CONSTANT CONCENTRATION =   0.000000    
                           EVAPORATION =   0.000000                               EVAPORATION =   0.000000    
                             MASS LOSS =   0.000000                                 MASS LOSS =   0.000000    
                                         -------------------                                    --------------
                             TOTAL OUT =   2097.742                                 TOTAL OUT =   26.76412    

                        NET (IN - OUT) = -0.6103516E-02                        NET (IN - OUT) =  0.1335144E-04
                 DISCREPANCY (PERCENT) = -0.2909569E-03                 DISCREPANCY (PERCENT) =  0.4988558E-04
                                              FLOW ERR (QIN-QOUT-DV) = -0.9536743E-06 [L3/T]




 >>>>>>>>>>>>>>>>>>>>>>>>>>>>>>>>>>>>>>>>>>>>>>>>>>>>>>>FOR COMPONENT NO. 01<<<<<<<<<<<<<<<<<<<<<<<<<<<<<<<<<<<<<<<<<<<<<<<<<<<<<<<


                                            -------------------------------------------
                                                      TRANSPORT STEP NO.   19
                                            -------------------------------------------

 TOTAL ELAPSED TIME SINCE BEGINNING OF SIMULATION =   34020.00    D   
 .....................................................................

                     CUMULATIVE MASS BUDGETS AT END OF TRANSPORT STEP   19, TIME STEP    1, STRESS PERIOD    2
                     -----------------------------------------------------------------------------------------

                                                             IN                           OUT
                                                      ----------------             ----------------
                               CONSTANT CONCENTRATION:    0.000000                    0.000000    
                                        CONSTANT HEAD:    424.6453                   -235.8320    
                                               STREAM:    0.000000                   -188.8183    
                               MASS STOR (FLOW MODEL):   0.5160459E-02              -0.6986623E-07
                                MASS STORAGE (SOLUTE):    0.000000                    0.000000    
                            ---------------------------------------------------------------------------
                                              [TOTAL]:    424.6505     KG            -424.6503     KG  

                                                          NET (IN - OUT):   0.1220703E-03
                                                   DISCREPANCY (PERCENT):   0.2874607E-04
     2 CALLS TO GCG PACKAGE FOR TRANSPORT TIME STEP    20 IN FLOW TIME STEP     1 STRESS PERIOD     2
      2 TOTAL ITERATIONS
  MAXIMUM CONCENTRATION CHANGES FOR EACH ITERATION:
  MAX. CHANGE LAYER,ROW,COL MAX. CHANGE LAYER,ROW,COL MAX. CHANGE LAYER,ROW,COL MAX. CHANGE LAYER,ROW,COL MAX. CHANGE LAYER,ROW,COL
 ------------------------------------------------------------------------------------------------------------------------------------
    0.000     (  1,  1,  1)   0.000     (  1,  1,  1)


                     STREAM MASS BUDGETS AT END OF TRANSPORT STEP   20, TIME STEP    1, STRESS PERIOD    2 FOR COMPONENT   1
                     -------------------------------------------------------------------------------------------------------

                                         CUMULATIVE MASS [M]                                     MASS FOR THIS TIME STEP [M]
                                         -------------------                                    --------------
                      STREAM DEPLETION =   6.423701                          STREAM DEPLETION =  0.1056370    
                      INFLOW TO STREAM =   1928.249                          INFLOW TO STREAM =   25.65000    
                          GW TO STREAM =   189.8174                              GW TO STREAM =  0.9990391    
                         PRECIPITATION =   0.000000                             PRECIPITATION =   0.000000    
                                RUNOFF =   0.000000                                    RUNOFF =   0.000000    
                CONSTANT CONCENTRATION =   0.000000                    CONSTANT CONCENTRATION =   0.000000    
                             MASS GAIN =   0.000000                                 MASS GAIN =   0.000000    
                                         -------------------                                    --------------
                              TOTAL IN =   2124.490                                  TOTAL IN =   26.75467    

                   STREAM ACCUMULATION =   352.9248                       STREAM ACCUMULATION =   17.43063    
                        STREAM OUTFLOW =   1771.572                            STREAM OUTFLOW =   9.324040    
                          STREAM TO GW =   0.000000                              STREAM TO GW =   0.000000    
                CONSTANT CONCENTRATION =   0.000000                    CONSTANT CONCENTRATION =   0.000000    
                           EVAPORATION =   0.000000                               EVAPORATION =   0.000000    
                             MASS LOSS =   0.000000                                 MASS LOSS =   0.000000    
                                         -------------------                                    --------------
                             TOTAL OUT =   2124.496                                 TOTAL OUT =   26.75467    

                        NET (IN - OUT) = -0.6103516E-02                        NET (IN - OUT) =  0.1907349E-05
                 DISCREPANCY (PERCENT) = -0.2872928E-03                 DISCREPANCY (PERCENT) =  0.7129030E-05
                                              FLOW ERR (QIN-QOUT-DV) = -0.9536743E-06 [L3/T]




 >>>>>>>>>>>>>>>>>>>>>>>>>>>>>>>>>>>>>>>>>>>>>>>>>>>>>>>FOR COMPONENT NO. 01<<<<<<<<<<<<<<<<<<<<<<<<<<<<<<<<<<<<<<<<<<<<<<<<<<<<<<<


                                            -------------------------------------------
                                                      TRANSPORT STEP NO.   20
                                            -------------------------------------------

 TOTAL ELAPSED TIME SINCE BEGINNING OF SIMULATION =   34200.00    D   
 .....................................................................

                     CUMULATIVE MASS BUDGETS AT END OF TRANSPORT STEP   20, TIME STEP    1, STRESS PERIOD    2
                     -----------------------------------------------------------------------------------------

                                                             IN                           OUT
                                                      ----------------             ----------------
                               CONSTANT CONCENTRATION:    0.000000                    0.000000    
                                        CONSTANT HEAD:    426.8921                   -237.0798    
                                               STREAM:    0.000000                   -189.8174    
                               MASS STOR (FLOW MODEL):   0.5160484E-02              -0.6986623E-07
                                MASS STORAGE (SOLUTE):    0.000000                    0.000000    
                            ---------------------------------------------------------------------------
                                              [TOTAL]:    426.8973     KG            -426.8972     KG  

                                                          NET (IN - OUT):   0.1220703E-03
                                                   DISCREPANCY (PERCENT):   0.2859478E-04
     2 CALLS TO GCG PACKAGE FOR TRANSPORT TIME STEP    21 IN FLOW TIME STEP     1 STRESS PERIOD     2
      2 TOTAL ITERATIONS
  MAXIMUM CONCENTRATION CHANGES FOR EACH ITERATION:
  MAX. CHANGE LAYER,ROW,COL MAX. CHANGE LAYER,ROW,COL MAX. CHANGE LAYER,ROW,COL MAX. CHANGE LAYER,ROW,COL MAX. CHANGE LAYER,ROW,COL
 ------------------------------------------------------------------------------------------------------------------------------------
    0.000     (  1,  1,  1)   0.000     (  1,  1,  1)


                     STREAM MASS BUDGETS AT END OF TRANSPORT STEP   21, TIME STEP    1, STRESS PERIOD    2 FOR COMPONENT   1
                     -------------------------------------------------------------------------------------------------------

                                         CUMULATIVE MASS [M]                                     MASS FOR THIS TIME STEP [M]
                                         -------------------                                    --------------
                      STREAM DEPLETION =   6.520587                          STREAM DEPLETION =  0.9688679E-01
                      INFLOW TO STREAM =   1953.899                          INFLOW TO STREAM =   25.65000    
                          GW TO STREAM =   190.8164                              GW TO STREAM =  0.9990391    
                         PRECIPITATION =   0.000000                             PRECIPITATION =   0.000000    
                                RUNOFF =   0.000000                                    RUNOFF =   0.000000    
                CONSTANT CONCENTRATION =   0.000000                    CONSTANT CONCENTRATION =   0.000000    
                             MASS GAIN =   0.000000                                 MASS GAIN =   0.000000    
                                         -------------------                                    --------------
                              TOTAL IN =   2151.236                                  TOTAL IN =   26.74593    

                   STREAM ACCUMULATION =   370.3466                       STREAM ACCUMULATION =   17.42187    
                        STREAM OUTFLOW =   1780.896                            STREAM OUTFLOW =   9.324040    
                          STREAM TO GW =   0.000000                              STREAM TO GW =   0.000000    
                CONSTANT CONCENTRATION =   0.000000                    CONSTANT CONCENTRATION =   0.000000    
                           EVAPORATION =   0.000000                               EVAPORATION =   0.000000    
                             MASS LOSS =   0.000000                                 MASS LOSS =   0.000000    
                                         -------------------                                    --------------
                             TOTAL OUT =   2151.242                                 TOTAL OUT =   26.74591    

                        NET (IN - OUT) = -0.5859375E-02                        NET (IN - OUT) =  0.1525879E-04
                 DISCREPANCY (PERCENT) = -0.2723721E-03                 DISCREPANCY (PERCENT) =  0.5705091E-04
                                              FLOW ERR (QIN-QOUT-DV) = -0.9536743E-06 [L3/T]




 >>>>>>>>>>>>>>>>>>>>>>>>>>>>>>>>>>>>>>>>>>>>>>>>>>>>>>>FOR COMPONENT NO. 01<<<<<<<<<<<<<<<<<<<<<<<<<<<<<<<<<<<<<<<<<<<<<<<<<<<<<<<


                                            -------------------------------------------
                                                      TRANSPORT STEP NO.   21
                                            -------------------------------------------

 TOTAL ELAPSED TIME SINCE BEGINNING OF SIMULATION =   34380.00    D   
 .....................................................................

                     CUMULATIVE MASS BUDGETS AT END OF TRANSPORT STEP   21, TIME STEP    1, STRESS PERIOD    2
                     -----------------------------------------------------------------------------------------

                                                             IN                           OUT
                                                      ----------------             ----------------
                               CONSTANT CONCENTRATION:    0.000000                    0.000000    
                                        CONSTANT HEAD:    429.1389                   -238.3276    
                                               STREAM:    0.000000                   -190.8164    
                               MASS STOR (FLOW MODEL):   0.5160510E-02              -0.6986623E-07
                                MASS STORAGE (SOLUTE):    0.000000                    0.000000    
                            ---------------------------------------------------------------------------
                                              [TOTAL]:    429.1441     KG            -429.1440     KG  

                                                          NET (IN - OUT):   0.1220703E-03
                                                   DISCREPANCY (PERCENT):   0.2844507E-04
     2 CALLS TO GCG PACKAGE FOR TRANSPORT TIME STEP    22 IN FLOW TIME STEP     1 STRESS PERIOD     2
      2 TOTAL ITERATIONS
  MAXIMUM CONCENTRATION CHANGES FOR EACH ITERATION:
  MAX. CHANGE LAYER,ROW,COL MAX. CHANGE LAYER,ROW,COL MAX. CHANGE LAYER,ROW,COL MAX. CHANGE LAYER,ROW,COL MAX. CHANGE LAYER,ROW,COL
 ------------------------------------------------------------------------------------------------------------------------------------
    0.000     (  1,  1,  1)   0.000     (  1,  1,  1)


                     STREAM MASS BUDGETS AT END OF TRANSPORT STEP   22, TIME STEP    1, STRESS PERIOD    2 FOR COMPONENT   1
                     -------------------------------------------------------------------------------------------------------

                                         CUMULATIVE MASS [M]                                     MASS FOR THIS TIME STEP [M]
                                         -------------------                                    --------------
                      STREAM DEPLETION =   6.609250                          STREAM DEPLETION =  0.8866204E-01
                      INFLOW TO STREAM =   1979.549                          INFLOW TO STREAM =   25.65000    
                          GW TO STREAM =   191.8154                              GW TO STREAM =  0.9990391    
                         PRECIPITATION =   0.000000                             PRECIPITATION =   0.000000    
                                RUNOFF =   0.000000                                    RUNOFF =   0.000000    
                CONSTANT CONCENTRATION =   0.000000                    CONSTANT CONCENTRATION =   0.000000    
                             MASS GAIN =   0.000000                                 MASS GAIN =   0.000000    
                                         -------------------                                    --------------
                              TOTAL IN =   2177.974                                  TOTAL IN =   26.73770    

                   STREAM ACCUMULATION =   387.7603                       STREAM ACCUMULATION =   17.41365    
                        STREAM OUTFLOW =   1790.220                            STREAM OUTFLOW =   9.324040    
                          STREAM TO GW =   0.000000                              STREAM TO GW =   0.000000    
                CONSTANT CONCENTRATION =   0.000000                    CONSTANT CONCENTRATION =   0.000000    
                           EVAPORATION =   0.000000                               EVAPORATION =   0.000000    
                             MASS LOSS =   0.000000                                 MASS LOSS =   0.000000    
                                         -------------------                                    --------------
                             TOTAL OUT =   2177.980                                 TOTAL OUT =   26.73769    

                        NET (IN - OUT) = -0.5859375E-02                        NET (IN - OUT) =  0.9536743E-05
                 DISCREPANCY (PERCENT) = -0.2690283E-03                 DISCREPANCY (PERCENT) =  0.3566778E-04
                                              FLOW ERR (QIN-QOUT-DV) = -0.9536743E-06 [L3/T]




 >>>>>>>>>>>>>>>>>>>>>>>>>>>>>>>>>>>>>>>>>>>>>>>>>>>>>>>FOR COMPONENT NO. 01<<<<<<<<<<<<<<<<<<<<<<<<<<<<<<<<<<<<<<<<<<<<<<<<<<<<<<<


                                            -------------------------------------------
                                                      TRANSPORT STEP NO.   22
                                            -------------------------------------------

 TOTAL ELAPSED TIME SINCE BEGINNING OF SIMULATION =   34560.00    D   
 .....................................................................

                     CUMULATIVE MASS BUDGETS AT END OF TRANSPORT STEP   22, TIME STEP    1, STRESS PERIOD    2
                     -----------------------------------------------------------------------------------------

                                                             IN                           OUT
                                                      ----------------             ----------------
                               CONSTANT CONCENTRATION:    0.000000                    0.000000    
                                        CONSTANT HEAD:    431.3858                   -239.5753    
                                               STREAM:    0.000000                   -191.8154    
                               MASS STOR (FLOW MODEL):   0.5160536E-02              -0.6986623E-07
                                MASS STORAGE (SOLUTE):    0.000000                    0.000000    
                            ---------------------------------------------------------------------------
                                              [TOTAL]:    431.3909     KG            -431.3908     KG  

                                                          NET (IN - OUT):   0.1220703E-03
                                                   DISCREPANCY (PERCENT):   0.2829692E-04
     2 CALLS TO GCG PACKAGE FOR TRANSPORT TIME STEP    23 IN FLOW TIME STEP     1 STRESS PERIOD     2
      2 TOTAL ITERATIONS
  MAXIMUM CONCENTRATION CHANGES FOR EACH ITERATION:
  MAX. CHANGE LAYER,ROW,COL MAX. CHANGE LAYER,ROW,COL MAX. CHANGE LAYER,ROW,COL MAX. CHANGE LAYER,ROW,COL MAX. CHANGE LAYER,ROW,COL
 ------------------------------------------------------------------------------------------------------------------------------------
    0.000     (  1,  1,  1)   0.000     (  1,  1,  1)


                     STREAM MASS BUDGETS AT END OF TRANSPORT STEP   23, TIME STEP    1, STRESS PERIOD    2 FOR COMPONENT   1
                     -------------------------------------------------------------------------------------------------------

                                         CUMULATIVE MASS [M]                                     MASS FOR THIS TIME STEP [M]
                                         -------------------                                    --------------
                      STREAM DEPLETION =   6.690235                          STREAM DEPLETION =  0.8098543E-01
                      INFLOW TO STREAM =   2005.199                          INFLOW TO STREAM =   25.65000    
                          GW TO STREAM =   192.8145                              GW TO STREAM =  0.9990391    
                         PRECIPITATION =   0.000000                             PRECIPITATION =   0.000000    
                                RUNOFF =   0.000000                                    RUNOFF =   0.000000    
                CONSTANT CONCENTRATION =   0.000000                    CONSTANT CONCENTRATION =   0.000000    
                             MASS GAIN =   0.000000                                 MASS GAIN =   0.000000    
                                         -------------------                                    --------------
                              TOTAL IN =   2204.704                                  TOTAL IN =   26.73002    

                   STREAM ACCUMULATION =   405.1663                       STREAM ACCUMULATION =   17.40598    
                        STREAM OUTFLOW =   1799.544                            STREAM OUTFLOW =   9.324040    
                          STREAM TO GW =   0.000000                              STREAM TO GW =   0.000000    
                CONSTANT CONCENTRATION =   0.000000                    CONSTANT CONCENTRATION =   0.000000    
                           EVAPORATION =   0.000000                               EVAPORATION =   0.000000    
                             MASS LOSS =   0.000000                                 MASS LOSS =   0.000000    
                                         -------------------                                    --------------
                             TOTAL OUT =   2204.710                                 TOTAL OUT =   26.73002    

                        NET (IN - OUT) = -0.6103516E-02                        NET (IN - OUT) =  0.1907349E-05
                 DISCREPANCY (PERCENT) = -0.2768402E-03                 DISCREPANCY (PERCENT) =  0.7135604E-05
                                              FLOW ERR (QIN-QOUT-DV) = -0.9536743E-06 [L3/T]




 >>>>>>>>>>>>>>>>>>>>>>>>>>>>>>>>>>>>>>>>>>>>>>>>>>>>>>>FOR COMPONENT NO. 01<<<<<<<<<<<<<<<<<<<<<<<<<<<<<<<<<<<<<<<<<<<<<<<<<<<<<<<


                                            -------------------------------------------
                                                      TRANSPORT STEP NO.   23
                                            -------------------------------------------

 TOTAL ELAPSED TIME SINCE BEGINNING OF SIMULATION =   34740.00    D   
 .....................................................................

                     CUMULATIVE MASS BUDGETS AT END OF TRANSPORT STEP   23, TIME STEP    1, STRESS PERIOD    2
                     -----------------------------------------------------------------------------------------

                                                             IN                           OUT
                                                      ----------------             ----------------
                               CONSTANT CONCENTRATION:    0.000000                    0.000000    
                                        CONSTANT HEAD:    433.6326                   -240.8231    
                                               STREAM:    0.000000                   -192.8145    
                               MASS STOR (FLOW MODEL):   0.5160561E-02              -0.6986623E-07
                                MASS STORAGE (SOLUTE):    0.000000                    0.000000    
                            ---------------------------------------------------------------------------
                                              [TOTAL]:    433.6378     KG            -433.6376     KG  

                                                          NET (IN - OUT):   0.1220703E-03
                                                   DISCREPANCY (PERCENT):   0.2815030E-04
     2 CALLS TO GCG PACKAGE FOR TRANSPORT TIME STEP    24 IN FLOW TIME STEP     1 STRESS PERIOD     2
      2 TOTAL ITERATIONS
  MAXIMUM CONCENTRATION CHANGES FOR EACH ITERATION:
  MAX. CHANGE LAYER,ROW,COL MAX. CHANGE LAYER,ROW,COL MAX. CHANGE LAYER,ROW,COL MAX. CHANGE LAYER,ROW,COL MAX. CHANGE LAYER,ROW,COL
 ------------------------------------------------------------------------------------------------------------------------------------
    0.000     (  1,  1,  1)   0.000     (  1,  1,  1)


                     STREAM MASS BUDGETS AT END OF TRANSPORT STEP   24, TIME STEP    1, STRESS PERIOD    2 FOR COMPONENT   1
                     -------------------------------------------------------------------------------------------------------

                                         CUMULATIVE MASS [M]                                     MASS FOR THIS TIME STEP [M]
                                         -------------------                                    --------------
                      STREAM DEPLETION =   6.764330                          STREAM DEPLETION =  0.7409489E-01
                      INFLOW TO STREAM =   2030.849                          INFLOW TO STREAM =   25.65000    
                          GW TO STREAM =   193.8135                              GW TO STREAM =  0.9990391    
                         PRECIPITATION =   0.000000                             PRECIPITATION =   0.000000    
                                RUNOFF =   0.000000                                    RUNOFF =   0.000000    
                CONSTANT CONCENTRATION =   0.000000                    CONSTANT CONCENTRATION =   0.000000    
                             MASS GAIN =   0.000000                                 MASS GAIN =   0.000000    
                                         -------------------                                    --------------
                              TOTAL IN =   2231.427                                  TOTAL IN =   26.72313    

                   STREAM ACCUMULATION =   422.5654                       STREAM ACCUMULATION =   17.39910    
                        STREAM OUTFLOW =   1808.868                            STREAM OUTFLOW =   9.324040    
                          STREAM TO GW =   0.000000                              STREAM TO GW =   0.000000    
                CONSTANT CONCENTRATION =   0.000000                    CONSTANT CONCENTRATION =   0.000000    
                           EVAPORATION =   0.000000                               EVAPORATION =   0.000000    
                             MASS LOSS =   0.000000                                 MASS LOSS =   0.000000    
                                         -------------------                                    --------------
                             TOTAL OUT =   2231.433                                 TOTAL OUT =   26.72314    

                        NET (IN - OUT) = -0.6103516E-02                        NET (IN - OUT) = -0.3814697E-05
                 DISCREPANCY (PERCENT) = -0.2735248E-03                 DISCREPANCY (PERCENT) = -0.1427489E-04
                                              FLOW ERR (QIN-QOUT-DV) = -0.9536743E-06 [L3/T]




 >>>>>>>>>>>>>>>>>>>>>>>>>>>>>>>>>>>>>>>>>>>>>>>>>>>>>>>FOR COMPONENT NO. 01<<<<<<<<<<<<<<<<<<<<<<<<<<<<<<<<<<<<<<<<<<<<<<<<<<<<<<<


                                            -------------------------------------------
                                                      TRANSPORT STEP NO.   24
                                            -------------------------------------------

 TOTAL ELAPSED TIME SINCE BEGINNING OF SIMULATION =   34920.00    D   
 .....................................................................

                     CUMULATIVE MASS BUDGETS AT END OF TRANSPORT STEP   24, TIME STEP    1, STRESS PERIOD    2
                     -----------------------------------------------------------------------------------------

                                                             IN                           OUT
                                                      ----------------             ----------------
                               CONSTANT CONCENTRATION:    0.000000                    0.000000    
                                        CONSTANT HEAD:    435.8794                   -242.0709    
                                               STREAM:    0.000000                   -193.8135    
                               MASS STOR (FLOW MODEL):   0.5160587E-02              -0.6986623E-07
                                MASS STORAGE (SOLUTE):    0.000000                    0.000000    
                            ---------------------------------------------------------------------------
                                              [TOTAL]:    435.8846     KG            -435.8845     KG  

                                                          NET (IN - OUT):   0.1220703E-03
                                                   DISCREPANCY (PERCENT):   0.2800520E-04
     2 CALLS TO GCG PACKAGE FOR TRANSPORT TIME STEP    25 IN FLOW TIME STEP     1 STRESS PERIOD     2
      2 TOTAL ITERATIONS
  MAXIMUM CONCENTRATION CHANGES FOR EACH ITERATION:
  MAX. CHANGE LAYER,ROW,COL MAX. CHANGE LAYER,ROW,COL MAX. CHANGE LAYER,ROW,COL MAX. CHANGE LAYER,ROW,COL MAX. CHANGE LAYER,ROW,COL
 ------------------------------------------------------------------------------------------------------------------------------------
    0.000     (  1,  1,  1)   0.000     (  1,  1,  1)


                     STREAM MASS BUDGETS AT END OF TRANSPORT STEP   25, TIME STEP    1, STRESS PERIOD    2 FOR COMPONENT   1
                     -------------------------------------------------------------------------------------------------------

                                         CUMULATIVE MASS [M]                                     MASS FOR THIS TIME STEP [M]
                                         -------------------                                    --------------
                      STREAM DEPLETION =   6.832107                          STREAM DEPLETION =  0.6777687E-01
                      INFLOW TO STREAM =   2056.499                          INFLOW TO STREAM =   25.65000    
                          GW TO STREAM =   194.8126                              GW TO STREAM =  0.9990391    
                         PRECIPITATION =   0.000000                             PRECIPITATION =   0.000000    
                                RUNOFF =   0.000000                                    RUNOFF =   0.000000    
                CONSTANT CONCENTRATION =   0.000000                    CONSTANT CONCENTRATION =   0.000000    
                             MASS GAIN =   0.000000                                 MASS GAIN =   0.000000    
                                         -------------------                                    --------------
                              TOTAL IN =   2258.144                                  TOTAL IN =   26.71682    

                   STREAM ACCUMULATION =   439.9582                       STREAM ACCUMULATION =   17.39277    
                        STREAM OUTFLOW =   1818.192                            STREAM OUTFLOW =   9.324040    
                          STREAM TO GW =   0.000000                              STREAM TO GW =   0.000000    
                CONSTANT CONCENTRATION =   0.000000                    CONSTANT CONCENTRATION =   0.000000    
                           EVAPORATION =   0.000000                               EVAPORATION =   0.000000    
                             MASS LOSS =   0.000000                                 MASS LOSS =   0.000000    
                                         -------------------                                    --------------
                             TOTAL OUT =   2258.150                                 TOTAL OUT =   26.71681    

                        NET (IN - OUT) = -0.6103516E-02                        NET (IN - OUT) =  0.3814697E-05
                 DISCREPANCY (PERCENT) = -0.2702887E-03                 DISCREPANCY (PERCENT) =  0.1427826E-04
                                              FLOW ERR (QIN-QOUT-DV) = -0.9536743E-06 [L3/T]




 >>>>>>>>>>>>>>>>>>>>>>>>>>>>>>>>>>>>>>>>>>>>>>>>>>>>>>>FOR COMPONENT NO. 01<<<<<<<<<<<<<<<<<<<<<<<<<<<<<<<<<<<<<<<<<<<<<<<<<<<<<<<


                                            -------------------------------------------
                                                      TRANSPORT STEP NO.   25
                                            -------------------------------------------

 TOTAL ELAPSED TIME SINCE BEGINNING OF SIMULATION =   35100.00    D   
 .....................................................................

                     CUMULATIVE MASS BUDGETS AT END OF TRANSPORT STEP   25, TIME STEP    1, STRESS PERIOD    2
                     -----------------------------------------------------------------------------------------

                                                             IN                           OUT
                                                      ----------------             ----------------
                               CONSTANT CONCENTRATION:    0.000000                    0.000000    
                                        CONSTANT HEAD:    438.1263                   -243.3187    
                                               STREAM:    0.000000                   -194.8126    
                               MASS STOR (FLOW MODEL):   0.5160613E-02              -0.6986623E-07
                                MASS STORAGE (SOLUTE):    0.000000                    0.000000    
                            ---------------------------------------------------------------------------
                                              [TOTAL]:    438.1314     KG            -438.1313     KG  

                                                          NET (IN - OUT):   0.1220703E-03
                                                   DISCREPANCY (PERCENT):   0.2786158E-04
     2 CALLS TO GCG PACKAGE FOR TRANSPORT TIME STEP    26 IN FLOW TIME STEP     1 STRESS PERIOD     2
      2 TOTAL ITERATIONS
  MAXIMUM CONCENTRATION CHANGES FOR EACH ITERATION:
  MAX. CHANGE LAYER,ROW,COL MAX. CHANGE LAYER,ROW,COL MAX. CHANGE LAYER,ROW,COL MAX. CHANGE LAYER,ROW,COL MAX. CHANGE LAYER,ROW,COL
 ------------------------------------------------------------------------------------------------------------------------------------
    0.000     (  1,  1,  1)   0.000     (  1,  1,  1)


                     STREAM MASS BUDGETS AT END OF TRANSPORT STEP   26, TIME STEP    1, STRESS PERIOD    2 FOR COMPONENT   1
                     -------------------------------------------------------------------------------------------------------

                                         CUMULATIVE MASS [M]                                     MASS FOR THIS TIME STEP [M]
                                         -------------------                                    --------------
                      STREAM DEPLETION =   6.894341                          STREAM DEPLETION =  0.6223375E-01
                      INFLOW TO STREAM =   2082.149                          INFLOW TO STREAM =   25.65000    
                          GW TO STREAM =   195.8116                              GW TO STREAM =  0.9990391    
                         PRECIPITATION =   0.000000                             PRECIPITATION =   0.000000    
                                RUNOFF =   0.000000                                    RUNOFF =   0.000000    
                CONSTANT CONCENTRATION =   0.000000                    CONSTANT CONCENTRATION =   0.000000    
                             MASS GAIN =   0.000000                                 MASS GAIN =   0.000000    
                                         -------------------                                    --------------
                              TOTAL IN =   2284.855                                  TOTAL IN =   26.71127    

                   STREAM ACCUMULATION =   457.3454                       STREAM ACCUMULATION =   17.38722    
                        STREAM OUTFLOW =   1827.516                            STREAM OUTFLOW =   9.324040    
                          STREAM TO GW =   0.000000                              STREAM TO GW =   0.000000    
                CONSTANT CONCENTRATION =   0.000000                    CONSTANT CONCENTRATION =   0.000000    
                           EVAPORATION =   0.000000                               EVAPORATION =   0.000000    
                             MASS LOSS =   0.000000                                 MASS LOSS =   0.000000    
                                         -------------------                                    --------------
                             TOTAL OUT =   2284.862                                 TOTAL OUT =   26.71126    

                        NET (IN - OUT) = -0.6591797E-02                        NET (IN - OUT) =  0.9536743E-05
                 DISCREPANCY (PERCENT) = -0.2884991E-03                 DISCREPANCY (PERCENT) =  0.3570308E-04
                                              FLOW ERR (QIN-QOUT-DV) = -0.9536743E-06 [L3/T]




 >>>>>>>>>>>>>>>>>>>>>>>>>>>>>>>>>>>>>>>>>>>>>>>>>>>>>>>FOR COMPONENT NO. 01<<<<<<<<<<<<<<<<<<<<<<<<<<<<<<<<<<<<<<<<<<<<<<<<<<<<<<<


                                            -------------------------------------------
                                                      TRANSPORT STEP NO.   26
                                            -------------------------------------------

 TOTAL ELAPSED TIME SINCE BEGINNING OF SIMULATION =   35280.00    D   
 .....................................................................

                     CUMULATIVE MASS BUDGETS AT END OF TRANSPORT STEP   26, TIME STEP    1, STRESS PERIOD    2
                     -----------------------------------------------------------------------------------------

                                                             IN                           OUT
                                                      ----------------             ----------------
                               CONSTANT CONCENTRATION:    0.000000                    0.000000    
                                        CONSTANT HEAD:    440.3731                   -244.5665    
                                               STREAM:    0.000000                   -195.8116    
                               MASS STOR (FLOW MODEL):   0.5160638E-02              -0.6986623E-07
                                MASS STORAGE (SOLUTE):    0.000000                    0.000000    
                            ---------------------------------------------------------------------------
                                              [TOTAL]:    440.3782     KG            -440.3781     KG  

                                                          NET (IN - OUT):   0.1220703E-03
                                                   DISCREPANCY (PERCENT):   0.2771943E-04
     2 CALLS TO GCG PACKAGE FOR TRANSPORT TIME STEP    27 IN FLOW TIME STEP     1 STRESS PERIOD     2
      2 TOTAL ITERATIONS
  MAXIMUM CONCENTRATION CHANGES FOR EACH ITERATION:
  MAX. CHANGE LAYER,ROW,COL MAX. CHANGE LAYER,ROW,COL MAX. CHANGE LAYER,ROW,COL MAX. CHANGE LAYER,ROW,COL MAX. CHANGE LAYER,ROW,COL
 ------------------------------------------------------------------------------------------------------------------------------------
    0.000     (  1,  1,  1)   0.000     (  1,  1,  1)


                     STREAM MASS BUDGETS AT END OF TRANSPORT STEP   27, TIME STEP    1, STRESS PERIOD    2 FOR COMPONENT   1
                     -------------------------------------------------------------------------------------------------------

                                         CUMULATIVE MASS [M]                                     MASS FOR THIS TIME STEP [M]
                                         -------------------                                    --------------
                      STREAM DEPLETION =   6.951720                          STREAM DEPLETION =  0.5737913E-01
                      INFLOW TO STREAM =   2107.799                          INFLOW TO STREAM =   25.65000    
                          GW TO STREAM =   196.8106                              GW TO STREAM =  0.9990391    
                         PRECIPITATION =   0.000000                             PRECIPITATION =   0.000000    
                                RUNOFF =   0.000000                                    RUNOFF =   0.000000    
                CONSTANT CONCENTRATION =   0.000000                    CONSTANT CONCENTRATION =   0.000000    
                             MASS GAIN =   0.000000                                 MASS GAIN =   0.000000    
                                         -------------------                                    --------------
                              TOTAL IN =   2311.562                                  TOTAL IN =   26.70642    

                   STREAM ACCUMULATION =   474.7278                       STREAM ACCUMULATION =   17.38238    
                        STREAM OUTFLOW =   1836.840                            STREAM OUTFLOW =   9.324040    
                          STREAM TO GW =   0.000000                              STREAM TO GW =   0.000000    
                CONSTANT CONCENTRATION =   0.000000                    CONSTANT CONCENTRATION =   0.000000    
                           EVAPORATION =   0.000000                               EVAPORATION =   0.000000    
                             MASS LOSS =   0.000000                                 MASS LOSS =   0.000000    
                                         -------------------                                    --------------
                             TOTAL OUT =   2311.568                                 TOTAL OUT =   26.70642    

                        NET (IN - OUT) = -0.6347656E-02                        NET (IN - OUT) = -0.7629395E-05
                 DISCREPANCY (PERCENT) = -0.2746043E-03                 DISCREPANCY (PERCENT) = -0.2856764E-04
                                              FLOW ERR (QIN-QOUT-DV) = -0.9536743E-06 [L3/T]




 >>>>>>>>>>>>>>>>>>>>>>>>>>>>>>>>>>>>>>>>>>>>>>>>>>>>>>>FOR COMPONENT NO. 01<<<<<<<<<<<<<<<<<<<<<<<<<<<<<<<<<<<<<<<<<<<<<<<<<<<<<<<


                                            -------------------------------------------
                                                      TRANSPORT STEP NO.   27
                                            -------------------------------------------

 TOTAL ELAPSED TIME SINCE BEGINNING OF SIMULATION =   35460.00    D   
 .....................................................................

                     CUMULATIVE MASS BUDGETS AT END OF TRANSPORT STEP   27, TIME STEP    1, STRESS PERIOD    2
                     -----------------------------------------------------------------------------------------

                                                             IN                           OUT
                                                      ----------------             ----------------
                               CONSTANT CONCENTRATION:    0.000000                    0.000000    
                                        CONSTANT HEAD:    442.6199                   -245.8143    
                                               STREAM:    0.000000                   -196.8106    
                               MASS STOR (FLOW MODEL):   0.5160664E-02              -0.6986623E-07
                                MASS STORAGE (SOLUTE):    0.000000                    0.000000    
                            ---------------------------------------------------------------------------
                                              [TOTAL]:    442.6251     KG            -442.6249     KG  

                                                          NET (IN - OUT):   0.1220703E-03
                                                   DISCREPANCY (PERCENT):   0.2757872E-04
     2 CALLS TO GCG PACKAGE FOR TRANSPORT TIME STEP    28 IN FLOW TIME STEP     1 STRESS PERIOD     2
      2 TOTAL ITERATIONS
  MAXIMUM CONCENTRATION CHANGES FOR EACH ITERATION:
  MAX. CHANGE LAYER,ROW,COL MAX. CHANGE LAYER,ROW,COL MAX. CHANGE LAYER,ROW,COL MAX. CHANGE LAYER,ROW,COL MAX. CHANGE LAYER,ROW,COL
 ------------------------------------------------------------------------------------------------------------------------------------
    0.000     (  1,  1,  1)   0.000     (  1,  1,  1)


                     STREAM MASS BUDGETS AT END OF TRANSPORT STEP   28, TIME STEP    1, STRESS PERIOD    2 FOR COMPONENT   1
                     -------------------------------------------------------------------------------------------------------

                                         CUMULATIVE MASS [M]                                     MASS FOR THIS TIME STEP [M]
                                         -------------------                                    --------------
                      STREAM DEPLETION =   7.004569                          STREAM DEPLETION =  0.5284929E-01
                      INFLOW TO STREAM =   2133.449                          INFLOW TO STREAM =   25.65000    
                          GW TO STREAM =   197.8097                              GW TO STREAM =  0.9990391    
                         PRECIPITATION =   0.000000                             PRECIPITATION =   0.000000    
                                RUNOFF =   0.000000                                    RUNOFF =   0.000000    
                CONSTANT CONCENTRATION =   0.000000                    CONSTANT CONCENTRATION =   0.000000    
                             MASS GAIN =   0.000000                                 MASS GAIN =   0.000000    
                                         -------------------                                    --------------
                              TOTAL IN =   2338.263                                  TOTAL IN =   26.70189    

                   STREAM ACCUMULATION =   492.1056                       STREAM ACCUMULATION =   17.37784    
                        STREAM OUTFLOW =   1846.164                            STREAM OUTFLOW =   9.324040    
                          STREAM TO GW =   0.000000                              STREAM TO GW =   0.000000    
                CONSTANT CONCENTRATION =   0.000000                    CONSTANT CONCENTRATION =   0.000000    
                           EVAPORATION =   0.000000                               EVAPORATION =   0.000000    
                             MASS LOSS =   0.000000                                 MASS LOSS =   0.000000    
                                         -------------------                                    --------------
                             TOTAL OUT =   2338.270                                 TOTAL OUT =   26.70188    

                        NET (IN - OUT) = -0.6835938E-02                        NET (IN - OUT) =  0.9536743E-05
                 DISCREPANCY (PERCENT) = -0.2923507E-03                 DISCREPANCY (PERCENT) =  0.3571562E-04
                                              FLOW ERR (QIN-QOUT-DV) = -0.9536743E-06 [L3/T]




 >>>>>>>>>>>>>>>>>>>>>>>>>>>>>>>>>>>>>>>>>>>>>>>>>>>>>>>FOR COMPONENT NO. 01<<<<<<<<<<<<<<<<<<<<<<<<<<<<<<<<<<<<<<<<<<<<<<<<<<<<<<<


                                            -------------------------------------------
                                                      TRANSPORT STEP NO.   28
                                            -------------------------------------------

 TOTAL ELAPSED TIME SINCE BEGINNING OF SIMULATION =   35640.00    D   
 .....................................................................

                     CUMULATIVE MASS BUDGETS AT END OF TRANSPORT STEP   28, TIME STEP    1, STRESS PERIOD    2
                     -----------------------------------------------------------------------------------------

                                                             IN                           OUT
                                                      ----------------             ----------------
                               CONSTANT CONCENTRATION:    0.000000                    0.000000    
                                        CONSTANT HEAD:    444.8667                   -247.0621    
                                               STREAM:    0.000000                   -197.8097    
                               MASS STOR (FLOW MODEL):   0.5160689E-02              -0.6986623E-07
                                MASS STORAGE (SOLUTE):    0.000000                    0.000000    
                            ---------------------------------------------------------------------------
                                              [TOTAL]:    444.8719     KG            -444.8718     KG  

                                                          NET (IN - OUT):   0.1220703E-03
                                                   DISCREPANCY (PERCENT):   0.2743944E-04
     2 CALLS TO GCG PACKAGE FOR TRANSPORT TIME STEP    29 IN FLOW TIME STEP     1 STRESS PERIOD     2
      2 TOTAL ITERATIONS
  MAXIMUM CONCENTRATION CHANGES FOR EACH ITERATION:
  MAX. CHANGE LAYER,ROW,COL MAX. CHANGE LAYER,ROW,COL MAX. CHANGE LAYER,ROW,COL MAX. CHANGE LAYER,ROW,COL MAX. CHANGE LAYER,ROW,COL
 ------------------------------------------------------------------------------------------------------------------------------------
    0.000     (  1,  1,  1)   0.000     (  1,  1,  1)


                     STREAM MASS BUDGETS AT END OF TRANSPORT STEP   29, TIME STEP    1, STRESS PERIOD    2 FOR COMPONENT   1
                     -------------------------------------------------------------------------------------------------------

                                         CUMULATIVE MASS [M]                                     MASS FOR THIS TIME STEP [M]
                                         -------------------                                    --------------
                      STREAM DEPLETION =   7.053785                          STREAM DEPLETION =  0.4921646E-01
                      INFLOW TO STREAM =   2159.099                          INFLOW TO STREAM =   25.65000    
                          GW TO STREAM =   198.8087                              GW TO STREAM =  0.9990391    
                         PRECIPITATION =   0.000000                             PRECIPITATION =   0.000000    
                                RUNOFF =   0.000000                                    RUNOFF =   0.000000    
                CONSTANT CONCENTRATION =   0.000000                    CONSTANT CONCENTRATION =   0.000000    
                             MASS GAIN =   0.000000                                 MASS GAIN =   0.000000    
                                         -------------------                                    --------------
                              TOTAL IN =   2364.961                                  TOTAL IN =   26.69826    

                   STREAM ACCUMULATION =   509.4798                       STREAM ACCUMULATION =   17.37422    
                        STREAM OUTFLOW =   1855.488                            STREAM OUTFLOW =   9.324040    
                          STREAM TO GW =   0.000000                              STREAM TO GW =   0.000000    
                CONSTANT CONCENTRATION =   0.000000                    CONSTANT CONCENTRATION =   0.000000    
                           EVAPORATION =   0.000000                               EVAPORATION =   0.000000    
                             MASS LOSS =   0.000000                                 MASS LOSS =   0.000000    
                                         -------------------                                    --------------
                             TOTAL OUT =   2364.968                                 TOTAL OUT =   26.69826    

                        NET (IN - OUT) = -0.6835938E-02                        NET (IN - OUT) = -0.1907349E-05
                 DISCREPANCY (PERCENT) = -0.2890503E-03                 DISCREPANCY (PERCENT) = -0.7144094E-05
                                              FLOW ERR (QIN-QOUT-DV) = -0.9536743E-06 [L3/T]




 >>>>>>>>>>>>>>>>>>>>>>>>>>>>>>>>>>>>>>>>>>>>>>>>>>>>>>>FOR COMPONENT NO. 01<<<<<<<<<<<<<<<<<<<<<<<<<<<<<<<<<<<<<<<<<<<<<<<<<<<<<<<


                                            -------------------------------------------
                                                      TRANSPORT STEP NO.   29
                                            -------------------------------------------

 TOTAL ELAPSED TIME SINCE BEGINNING OF SIMULATION =   35820.00    D   
 .....................................................................

                     CUMULATIVE MASS BUDGETS AT END OF TRANSPORT STEP   29, TIME STEP    1, STRESS PERIOD    2
                     -----------------------------------------------------------------------------------------

                                                             IN                           OUT
                                                      ----------------             ----------------
                               CONSTANT CONCENTRATION:    0.000000                    0.000000    
                                        CONSTANT HEAD:    447.1136                   -248.3099    
                                               STREAM:    0.000000                   -198.8087    
                               MASS STOR (FLOW MODEL):   0.5160715E-02              -0.6986623E-07
                                MASS STORAGE (SOLUTE):    0.000000                    0.000000    
                            ---------------------------------------------------------------------------
                                              [TOTAL]:    447.1187     KG            -447.1186     KG  

                                                          NET (IN - OUT):   0.1220703E-03
                                                   DISCREPANCY (PERCENT):   0.2730155E-04
     2 CALLS TO GCG PACKAGE FOR TRANSPORT TIME STEP    30 IN FLOW TIME STEP     1 STRESS PERIOD     2
      2 TOTAL ITERATIONS
  MAXIMUM CONCENTRATION CHANGES FOR EACH ITERATION:
  MAX. CHANGE LAYER,ROW,COL MAX. CHANGE LAYER,ROW,COL MAX. CHANGE LAYER,ROW,COL MAX. CHANGE LAYER,ROW,COL MAX. CHANGE LAYER,ROW,COL
 ------------------------------------------------------------------------------------------------------------------------------------
    0.000     (  1,  1,  1)   0.000     (  1,  1,  1)


                     STREAM MASS BUDGETS AT END OF TRANSPORT STEP   30, TIME STEP    1, STRESS PERIOD    2 FOR COMPONENT   1
                     -------------------------------------------------------------------------------------------------------

                                         CUMULATIVE MASS [M]                                     MASS FOR THIS TIME STEP [M]
                                         -------------------                                    --------------
                      STREAM DEPLETION =   7.100307                          STREAM DEPLETION =  0.4652178E-01
                      INFLOW TO STREAM =   2184.749                          INFLOW TO STREAM =   25.65000    
                          GW TO STREAM =   199.8078                              GW TO STREAM =  0.9990391    
                         PRECIPITATION =   0.000000                             PRECIPITATION =   0.000000    
                                RUNOFF =   0.000000                                    RUNOFF =   0.000000    
                CONSTANT CONCENTRATION =   0.000000                    CONSTANT CONCENTRATION =   0.000000    
                             MASS GAIN =   0.000000                                 MASS GAIN =   0.000000    
                                         -------------------                                    --------------
                              TOTAL IN =   2391.657                                  TOTAL IN =   26.69556    

                   STREAM ACCUMULATION =   526.8513                       STREAM ACCUMULATION =   17.37152    
                        STREAM OUTFLOW =   1864.812                            STREAM OUTFLOW =   9.324040    
                          STREAM TO GW =   0.000000                              STREAM TO GW =   0.000000    
                CONSTANT CONCENTRATION =   0.000000                    CONSTANT CONCENTRATION =   0.000000    
                           EVAPORATION =   0.000000                               EVAPORATION =   0.000000    
                             MASS LOSS =   0.000000                                 MASS LOSS =   0.000000    
                                         -------------------                                    --------------
                             TOTAL OUT =   2391.664                                 TOTAL OUT =   26.69556    

                        NET (IN - OUT) = -0.7080078E-02                        NET (IN - OUT) =   0.000000    
                 DISCREPANCY (PERCENT) = -0.2960319E-03                 DISCREPANCY (PERCENT) =   0.000000    
                                              FLOW ERR (QIN-QOUT-DV) = -0.9536743E-06 [L3/T]




 >>>>>>>>>>>>>>>>>>>>>>>>>>>>>>>>>>>>>>>>>>>>>>>>>>>>>>>FOR COMPONENT NO. 01<<<<<<<<<<<<<<<<<<<<<<<<<<<<<<<<<<<<<<<<<<<<<<<<<<<<<<<


                                            -------------------------------------------
                                                      TRANSPORT STEP NO.   30
                                            -------------------------------------------

 TOTAL ELAPSED TIME SINCE BEGINNING OF SIMULATION =   36000.00    D   
 .....................................................................

                     CUMULATIVE MASS BUDGETS AT END OF TRANSPORT STEP   30, TIME STEP    1, STRESS PERIOD    2
                     -----------------------------------------------------------------------------------------

                                                             IN                           OUT
                                                      ----------------             ----------------
                               CONSTANT CONCENTRATION:    0.000000                    0.000000    
                                        CONSTANT HEAD:    449.3604                   -249.5576    
                                               STREAM:    0.000000                   -199.8078    
                               MASS STOR (FLOW MODEL):   0.5160741E-02              -0.6986623E-07
                                MASS STORAGE (SOLUTE):    0.000000                    0.000000    
                            ---------------------------------------------------------------------------
                                              [TOTAL]:    449.3655     KG            -449.3654     KG  

                                                          NET (IN - OUT):   0.1220703E-03
                                                   DISCREPANCY (PERCENT):   0.2716504E-04
     2 CALLS TO GCG PACKAGE FOR TRANSPORT TIME STEP    31 IN FLOW TIME STEP     1 STRESS PERIOD     2
      2 TOTAL ITERATIONS
  MAXIMUM CONCENTRATION CHANGES FOR EACH ITERATION:
  MAX. CHANGE LAYER,ROW,COL MAX. CHANGE LAYER,ROW,COL MAX. CHANGE LAYER,ROW,COL MAX. CHANGE LAYER,ROW,COL MAX. CHANGE LAYER,ROW,COL
 ------------------------------------------------------------------------------------------------------------------------------------
    0.000     (  1,  1,  1)   0.000     (  1,  1,  1)


                     STREAM MASS BUDGETS AT END OF TRANSPORT STEP   31, TIME STEP    1, STRESS PERIOD    2 FOR COMPONENT   1
                     -------------------------------------------------------------------------------------------------------

                                         CUMULATIVE MASS [M]                                     MASS FOR THIS TIME STEP [M]
                                         -------------------                                    --------------
                      STREAM DEPLETION =   7.144226                          STREAM DEPLETION =  0.4391932E-01
                      INFLOW TO STREAM =   2210.399                          INFLOW TO STREAM =   25.65000    
                          GW TO STREAM =   200.8068                              GW TO STREAM =  0.9990391    
                         PRECIPITATION =   0.000000                             PRECIPITATION =   0.000000    
                                RUNOFF =   0.000000                                    RUNOFF =   0.000000    
                CONSTANT CONCENTRATION =   0.000000                    CONSTANT CONCENTRATION =   0.000000    
                             MASS GAIN =   0.000000                                 MASS GAIN =   0.000000    
                                         -------------------                                    --------------
                              TOTAL IN =   2418.350                                  TOTAL IN =   26.69296    

                   STREAM ACCUMULATION =   544.2202                       STREAM ACCUMULATION =   17.36891    
                        STREAM OUTFLOW =   1874.137                            STREAM OUTFLOW =   9.324040    
                          STREAM TO GW =   0.000000                              STREAM TO GW =   0.000000    
                CONSTANT CONCENTRATION =   0.000000                    CONSTANT CONCENTRATION =   0.000000    
                           EVAPORATION =   0.000000                               EVAPORATION =   0.000000    
                             MASS LOSS =   0.000000                                 MASS LOSS =   0.000000    
                                         -------------------                                    --------------
                             TOTAL OUT =   2418.357                                 TOTAL OUT =   26.69295    

                        NET (IN - OUT) = -0.7324219E-02                        NET (IN - OUT) =  0.9536743E-05
                 DISCREPANCY (PERCENT) = -0.3028598E-03                 DISCREPANCY (PERCENT) =  0.3572757E-04
                                              FLOW ERR (QIN-QOUT-DV) = -0.9536743E-06 [L3/T]




 >>>>>>>>>>>>>>>>>>>>>>>>>>>>>>>>>>>>>>>>>>>>>>>>>>>>>>>FOR COMPONENT NO. 01<<<<<<<<<<<<<<<<<<<<<<<<<<<<<<<<<<<<<<<<<<<<<<<<<<<<<<<


                                            -------------------------------------------
                                                      TRANSPORT STEP NO.   31
                                            -------------------------------------------

 TOTAL ELAPSED TIME SINCE BEGINNING OF SIMULATION =   36180.00    D   
 .....................................................................

                     CUMULATIVE MASS BUDGETS AT END OF TRANSPORT STEP   31, TIME STEP    1, STRESS PERIOD    2
                     -----------------------------------------------------------------------------------------

                                                             IN                           OUT
                                                      ----------------             ----------------
                               CONSTANT CONCENTRATION:    0.000000                    0.000000    
                                        CONSTANT HEAD:    451.6072                   -250.8054    
                                               STREAM:    0.000000                   -200.8068    
                               MASS STOR (FLOW MODEL):   0.5160766E-02              -0.6986623E-07
                                MASS STORAGE (SOLUTE):    0.000000                    0.000000    
                            ---------------------------------------------------------------------------
                                              [TOTAL]:    451.6124     KG            -451.6122     KG  

                                                          NET (IN - OUT):   0.1220703E-03
                                                   DISCREPANCY (PERCENT):   0.2702989E-04
     2 CALLS TO GCG PACKAGE FOR TRANSPORT TIME STEP    32 IN FLOW TIME STEP     1 STRESS PERIOD     2
      2 TOTAL ITERATIONS
  MAXIMUM CONCENTRATION CHANGES FOR EACH ITERATION:
  MAX. CHANGE LAYER,ROW,COL MAX. CHANGE LAYER,ROW,COL MAX. CHANGE LAYER,ROW,COL MAX. CHANGE LAYER,ROW,COL MAX. CHANGE LAYER,ROW,COL
 ------------------------------------------------------------------------------------------------------------------------------------
    0.000     (  1,  1,  1)   0.000     (  1,  1,  1)


                     STREAM MASS BUDGETS AT END OF TRANSPORT STEP   32, TIME STEP    1, STRESS PERIOD    2 FOR COMPONENT   1
                     -------------------------------------------------------------------------------------------------------

                                         CUMULATIVE MASS [M]                                     MASS FOR THIS TIME STEP [M]
                                         -------------------                                    --------------
                      STREAM DEPLETION =   7.185622                          STREAM DEPLETION =  0.4139603E-01
                      INFLOW TO STREAM =   2236.049                          INFLOW TO STREAM =   25.65000    
                          GW TO STREAM =   201.8058                              GW TO STREAM =  0.9990391    
                         PRECIPITATION =   0.000000                             PRECIPITATION =   0.000000    
                                RUNOFF =   0.000000                                    RUNOFF =   0.000000    
                CONSTANT CONCENTRATION =   0.000000                    CONSTANT CONCENTRATION =   0.000000    
                             MASS GAIN =   0.000000                                 MASS GAIN =   0.000000    
                                         -------------------                                    --------------
                              TOTAL IN =   2445.040                                  TOTAL IN =   26.69043    

                   STREAM ACCUMULATION =   561.5866                       STREAM ACCUMULATION =   17.36640    
                        STREAM OUTFLOW =   1883.461                            STREAM OUTFLOW =   9.324040    
                          STREAM TO GW =   0.000000                              STREAM TO GW =   0.000000    
                CONSTANT CONCENTRATION =   0.000000                    CONSTANT CONCENTRATION =   0.000000    
                           EVAPORATION =   0.000000                               EVAPORATION =   0.000000    
                             MASS LOSS =   0.000000                                 MASS LOSS =   0.000000    
                                         -------------------                                    --------------
                             TOTAL OUT =   2445.047                                 TOTAL OUT =   26.69044    

                        NET (IN - OUT) = -0.7324219E-02                        NET (IN - OUT) = -0.3814697E-05
                 DISCREPANCY (PERCENT) = -0.2995537E-03                 DISCREPANCY (PERCENT) = -0.1429238E-04
                                              FLOW ERR (QIN-QOUT-DV) = -0.9536743E-06 [L3/T]




 >>>>>>>>>>>>>>>>>>>>>>>>>>>>>>>>>>>>>>>>>>>>>>>>>>>>>>>FOR COMPONENT NO. 01<<<<<<<<<<<<<<<<<<<<<<<<<<<<<<<<<<<<<<<<<<<<<<<<<<<<<<<


                                            -------------------------------------------
                                                      TRANSPORT STEP NO.   32
                                            -------------------------------------------

 TOTAL ELAPSED TIME SINCE BEGINNING OF SIMULATION =   36360.00    D   
 .....................................................................

                     CUMULATIVE MASS BUDGETS AT END OF TRANSPORT STEP   32, TIME STEP    1, STRESS PERIOD    2
                     -----------------------------------------------------------------------------------------

                                                             IN                           OUT
                                                      ----------------             ----------------
                               CONSTANT CONCENTRATION:    0.000000                    0.000000    
                                        CONSTANT HEAD:    453.8540                   -252.0532    
                                               STREAM:    0.000000                   -201.8058    
                               MASS STOR (FLOW MODEL):   0.5160792E-02              -0.6986623E-07
                                MASS STORAGE (SOLUTE):    0.000000                    0.000000    
                            ---------------------------------------------------------------------------
                                              [TOTAL]:    453.8592     KG            -453.8591     KG  

                                                          NET (IN - OUT):   0.1220703E-03
                                                   DISCREPANCY (PERCENT):   0.2689608E-04
     2 CALLS TO GCG PACKAGE FOR TRANSPORT TIME STEP    33 IN FLOW TIME STEP     1 STRESS PERIOD     2
      2 TOTAL ITERATIONS
  MAXIMUM CONCENTRATION CHANGES FOR EACH ITERATION:
  MAX. CHANGE LAYER,ROW,COL MAX. CHANGE LAYER,ROW,COL MAX. CHANGE LAYER,ROW,COL MAX. CHANGE LAYER,ROW,COL MAX. CHANGE LAYER,ROW,COL
 ------------------------------------------------------------------------------------------------------------------------------------
    0.000     (  1,  1,  1)   0.000     (  1,  1,  1)


                     STREAM MASS BUDGETS AT END OF TRANSPORT STEP   33, TIME STEP    1, STRESS PERIOD    2 FOR COMPONENT   1
                     -------------------------------------------------------------------------------------------------------

                                         CUMULATIVE MASS [M]                                     MASS FOR THIS TIME STEP [M]
                                         -------------------                                    --------------
                      STREAM DEPLETION =   7.224606                          STREAM DEPLETION =  0.3898391E-01
                      INFLOW TO STREAM =   2261.698                          INFLOW TO STREAM =   25.65000    
                          GW TO STREAM =   202.8049                              GW TO STREAM =  0.9990391    
                         PRECIPITATION =   0.000000                             PRECIPITATION =   0.000000    
                                RUNOFF =   0.000000                                    RUNOFF =   0.000000    
                CONSTANT CONCENTRATION =   0.000000                    CONSTANT CONCENTRATION =   0.000000    
                             MASS GAIN =   0.000000                                 MASS GAIN =   0.000000    
                                         -------------------                                    --------------
                              TOTAL IN =   2471.728                                  TOTAL IN =   26.68802    

                   STREAM ACCUMULATION =   578.9506                       STREAM ACCUMULATION =   17.36397    
                        STREAM OUTFLOW =   1892.785                            STREAM OUTFLOW =   9.324040    
                          STREAM TO GW =   0.000000                              STREAM TO GW =   0.000000    
                CONSTANT CONCENTRATION =   0.000000                    CONSTANT CONCENTRATION =   0.000000    
                           EVAPORATION =   0.000000                               EVAPORATION =   0.000000    
                             MASS LOSS =   0.000000                                 MASS LOSS =   0.000000    
                                         -------------------                                    --------------
                             TOTAL OUT =   2471.735                                 TOTAL OUT =   26.68801    

                        NET (IN - OUT) = -0.7324219E-02                        NET (IN - OUT) =  0.7629395E-05
                 DISCREPANCY (PERCENT) = -0.2963193E-03                 DISCREPANCY (PERCENT) =  0.2858734E-04
                                              FLOW ERR (QIN-QOUT-DV) = -0.9536743E-06 [L3/T]




 >>>>>>>>>>>>>>>>>>>>>>>>>>>>>>>>>>>>>>>>>>>>>>>>>>>>>>>FOR COMPONENT NO. 01<<<<<<<<<<<<<<<<<<<<<<<<<<<<<<<<<<<<<<<<<<<<<<<<<<<<<<<


                                            -------------------------------------------
                                                      TRANSPORT STEP NO.   33
                                            -------------------------------------------

 TOTAL ELAPSED TIME SINCE BEGINNING OF SIMULATION =   36540.00    D   
 .....................................................................

                     CUMULATIVE MASS BUDGETS AT END OF TRANSPORT STEP   33, TIME STEP    1, STRESS PERIOD    2
                     -----------------------------------------------------------------------------------------

                                                             IN                           OUT
                                                      ----------------             ----------------
                               CONSTANT CONCENTRATION:    0.000000                    0.000000    
                                        CONSTANT HEAD:    456.1009                   -253.3010    
                                               STREAM:    0.000000                   -202.8049    
                               MASS STOR (FLOW MODEL):   0.5160817E-02              -0.6986623E-07
                                MASS STORAGE (SOLUTE):    0.000000                    0.000000    
                            ---------------------------------------------------------------------------
                                              [TOTAL]:    456.1060     KG            -456.1059     KG  

                                                          NET (IN - OUT):   0.1220703E-03
                                                   DISCREPANCY (PERCENT):   0.2676359E-04
     2 CALLS TO GCG PACKAGE FOR TRANSPORT TIME STEP    34 IN FLOW TIME STEP     1 STRESS PERIOD     2
      2 TOTAL ITERATIONS
  MAXIMUM CONCENTRATION CHANGES FOR EACH ITERATION:
  MAX. CHANGE LAYER,ROW,COL MAX. CHANGE LAYER,ROW,COL MAX. CHANGE LAYER,ROW,COL MAX. CHANGE LAYER,ROW,COL MAX. CHANGE LAYER,ROW,COL
 ------------------------------------------------------------------------------------------------------------------------------------
    0.000     (  1,  1,  1)   0.000     (  1,  1,  1)


                     STREAM MASS BUDGETS AT END OF TRANSPORT STEP   34, TIME STEP    1, STRESS PERIOD    2 FOR COMPONENT   1
                     -------------------------------------------------------------------------------------------------------

                                         CUMULATIVE MASS [M]                                     MASS FOR THIS TIME STEP [M]
                                         -------------------                                    --------------
                      STREAM DEPLETION =   7.261323                          STREAM DEPLETION =  0.3671670E-01
                      INFLOW TO STREAM =   2287.348                          INFLOW TO STREAM =   25.65000    
                          GW TO STREAM =   203.8039                              GW TO STREAM =  0.9990391    
                         PRECIPITATION =   0.000000                             PRECIPITATION =   0.000000    
                                RUNOFF =   0.000000                                    RUNOFF =   0.000000    
                CONSTANT CONCENTRATION =   0.000000                    CONSTANT CONCENTRATION =   0.000000    
                             MASS GAIN =   0.000000                                 MASS GAIN =   0.000000    
                                         -------------------                                    --------------
                              TOTAL IN =   2498.414                                  TOTAL IN =   26.68575    

                   STREAM ACCUMULATION =   596.3123                       STREAM ACCUMULATION =   17.36171    
                        STREAM OUTFLOW =   1902.109                            STREAM OUTFLOW =   9.324040    
                          STREAM TO GW =   0.000000                              STREAM TO GW =   0.000000    
                CONSTANT CONCENTRATION =   0.000000                    CONSTANT CONCENTRATION =   0.000000    
                           EVAPORATION =   0.000000                               EVAPORATION =   0.000000    
                             MASS LOSS =   0.000000                                 MASS LOSS =   0.000000    
                                         -------------------                                    --------------
                             TOTAL OUT =   2498.421                                 TOTAL OUT =   26.68575    

                        NET (IN - OUT) = -0.7568359E-02                        NET (IN - OUT) =  0.9536743E-05
                 DISCREPANCY (PERCENT) = -0.3029261E-03                 DISCREPANCY (PERCENT) =  0.3573721E-04
                                              FLOW ERR (QIN-QOUT-DV) = -0.9536743E-06 [L3/T]




 >>>>>>>>>>>>>>>>>>>>>>>>>>>>>>>>>>>>>>>>>>>>>>>>>>>>>>>FOR COMPONENT NO. 01<<<<<<<<<<<<<<<<<<<<<<<<<<<<<<<<<<<<<<<<<<<<<<<<<<<<<<<


                                            -------------------------------------------
                                                      TRANSPORT STEP NO.   34
                                            -------------------------------------------

 TOTAL ELAPSED TIME SINCE BEGINNING OF SIMULATION =   36720.00    D   
 .....................................................................

                     CUMULATIVE MASS BUDGETS AT END OF TRANSPORT STEP   34, TIME STEP    1, STRESS PERIOD    2
                     -----------------------------------------------------------------------------------------

                                                             IN                           OUT
                                                      ----------------             ----------------
                               CONSTANT CONCENTRATION:    0.000000                    0.000000    
                                        CONSTANT HEAD:    458.3477                   -254.5488    
                                               STREAM:    0.000000                   -203.8039    
                               MASS STOR (FLOW MODEL):   0.5160843E-02              -0.6986623E-07
                                MASS STORAGE (SOLUTE):    0.000000                    0.000000    
                            ---------------------------------------------------------------------------
                                              [TOTAL]:    458.3528     KG            -458.3527     KG  

                                                          NET (IN - OUT):   0.1220703E-03
                                                   DISCREPANCY (PERCENT):   0.2663239E-04
     2 CALLS TO GCG PACKAGE FOR TRANSPORT TIME STEP    35 IN FLOW TIME STEP     1 STRESS PERIOD     2
      2 TOTAL ITERATIONS
  MAXIMUM CONCENTRATION CHANGES FOR EACH ITERATION:
  MAX. CHANGE LAYER,ROW,COL MAX. CHANGE LAYER,ROW,COL MAX. CHANGE LAYER,ROW,COL MAX. CHANGE LAYER,ROW,COL MAX. CHANGE LAYER,ROW,COL
 ------------------------------------------------------------------------------------------------------------------------------------
    0.000     (  1,  1,  1)   0.000     (  1,  1,  1)


                     STREAM MASS BUDGETS AT END OF TRANSPORT STEP   35, TIME STEP    1, STRESS PERIOD    2 FOR COMPONENT   1
                     -------------------------------------------------------------------------------------------------------

                                         CUMULATIVE MASS [M]                                     MASS FOR THIS TIME STEP [M]
                                         -------------------                                    --------------
                      STREAM DEPLETION =   7.295886                          STREAM DEPLETION =  0.3456256E-01
                      INFLOW TO STREAM =   2312.998                          INFLOW TO STREAM =   25.65000    
                          GW TO STREAM =   204.8029                              GW TO STREAM =  0.9990391    
                         PRECIPITATION =   0.000000                             PRECIPITATION =   0.000000    
                                RUNOFF =   0.000000                                    RUNOFF =   0.000000    
                CONSTANT CONCENTRATION =   0.000000                    CONSTANT CONCENTRATION =   0.000000    
                             MASS GAIN =   0.000000                                 MASS GAIN =   0.000000    
                                         -------------------                                    --------------
                              TOTAL IN =   2525.097                                  TOTAL IN =   26.68360    

                   STREAM ACCUMULATION =   613.6718                       STREAM ACCUMULATION =   17.35956    
                        STREAM OUTFLOW =   1911.433                            STREAM OUTFLOW =   9.324040    
                          STREAM TO GW =   0.000000                              STREAM TO GW =   0.000000    
                CONSTANT CONCENTRATION =   0.000000                    CONSTANT CONCENTRATION =   0.000000    
                           EVAPORATION =   0.000000                               EVAPORATION =   0.000000    
                             MASS LOSS =   0.000000                                 MASS LOSS =   0.000000    
                                         -------------------                                    --------------
                             TOTAL OUT =   2525.105                                 TOTAL OUT =   26.68361    

                        NET (IN - OUT) = -0.7568359E-02                        NET (IN - OUT) = -0.3814697E-05
                 DISCREPANCY (PERCENT) = -0.2997250E-03                 DISCREPANCY (PERCENT) = -0.1429604E-04
                                              FLOW ERR (QIN-QOUT-DV) = -0.9536743E-06 [L3/T]




 >>>>>>>>>>>>>>>>>>>>>>>>>>>>>>>>>>>>>>>>>>>>>>>>>>>>>>>FOR COMPONENT NO. 01<<<<<<<<<<<<<<<<<<<<<<<<<<<<<<<<<<<<<<<<<<<<<<<<<<<<<<<


                                            -------------------------------------------
                                                      TRANSPORT STEP NO.   35
                                            -------------------------------------------

 TOTAL ELAPSED TIME SINCE BEGINNING OF SIMULATION =   36900.00    D   
 .....................................................................

                     CUMULATIVE MASS BUDGETS AT END OF TRANSPORT STEP   35, TIME STEP    1, STRESS PERIOD    2
                     -----------------------------------------------------------------------------------------

                                                             IN                           OUT
                                                      ----------------             ----------------
                               CONSTANT CONCENTRATION:    0.000000                    0.000000    
                                        CONSTANT HEAD:    460.5945                   -255.7966    
                                               STREAM:    0.000000                   -204.8029    
                               MASS STOR (FLOW MODEL):   0.5160869E-02              -0.6986623E-07
                                MASS STORAGE (SOLUTE):    0.000000                    0.000000    
                            ---------------------------------------------------------------------------
                                              [TOTAL]:    460.5997     KG            -460.5995     KG  

                                                          NET (IN - OUT):   0.1220703E-03
                                                   DISCREPANCY (PERCENT):   0.2650248E-04
     2 CALLS TO GCG PACKAGE FOR TRANSPORT TIME STEP    36 IN FLOW TIME STEP     1 STRESS PERIOD     2
      2 TOTAL ITERATIONS
  MAXIMUM CONCENTRATION CHANGES FOR EACH ITERATION:
  MAX. CHANGE LAYER,ROW,COL MAX. CHANGE LAYER,ROW,COL MAX. CHANGE LAYER,ROW,COL MAX. CHANGE LAYER,ROW,COL MAX. CHANGE LAYER,ROW,COL
 ------------------------------------------------------------------------------------------------------------------------------------
    0.000     (  1,  1,  1)   0.000     (  1,  1,  1)


                     STREAM MASS BUDGETS AT END OF TRANSPORT STEP   36, TIME STEP    1, STRESS PERIOD    2 FOR COMPONENT   1
                     -------------------------------------------------------------------------------------------------------

                                         CUMULATIVE MASS [M]                                     MASS FOR THIS TIME STEP [M]
                                         -------------------                                    --------------
                      STREAM DEPLETION =   7.328397                          STREAM DEPLETION =  0.3251110E-01
                      INFLOW TO STREAM =   2338.648                          INFLOW TO STREAM =   25.65000    
                          GW TO STREAM =   205.8020                              GW TO STREAM =  0.9990391    
                         PRECIPITATION =   0.000000                             PRECIPITATION =   0.000000    
                                RUNOFF =   0.000000                                    RUNOFF =   0.000000    
                CONSTANT CONCENTRATION =   0.000000                    CONSTANT CONCENTRATION =   0.000000    
                             MASS GAIN =   0.000000                                 MASS GAIN =   0.000000    
                                         -------------------                                    --------------
                              TOTAL IN =   2551.779                                  TOTAL IN =   26.68155    

                   STREAM ACCUMULATION =   631.0293                       STREAM ACCUMULATION =   17.35750    
                        STREAM OUTFLOW =   1920.757                            STREAM OUTFLOW =   9.324040    
                          STREAM TO GW =   0.000000                              STREAM TO GW =   0.000000    
                CONSTANT CONCENTRATION =   0.000000                    CONSTANT CONCENTRATION =   0.000000    
                           EVAPORATION =   0.000000                               EVAPORATION =   0.000000    
                             MASS LOSS =   0.000000                                 MASS LOSS =   0.000000    
                                         -------------------                                    --------------
                             TOTAL OUT =   2551.786                                 TOTAL OUT =   26.68154    

                        NET (IN - OUT) = -0.7812500E-02                        NET (IN - OUT) =  0.1144409E-04
                 DISCREPANCY (PERCENT) = -0.3061585E-03                 DISCREPANCY (PERCENT) =  0.4289142E-04
                                              FLOW ERR (QIN-QOUT-DV) = -0.9536743E-06 [L3/T]




 >>>>>>>>>>>>>>>>>>>>>>>>>>>>>>>>>>>>>>>>>>>>>>>>>>>>>>>FOR COMPONENT NO. 01<<<<<<<<<<<<<<<<<<<<<<<<<<<<<<<<<<<<<<<<<<<<<<<<<<<<<<<


                                            -------------------------------------------
                                                      TRANSPORT STEP NO.   36
                                            -------------------------------------------

 TOTAL ELAPSED TIME SINCE BEGINNING OF SIMULATION =   37080.00    D   
 .....................................................................

                     CUMULATIVE MASS BUDGETS AT END OF TRANSPORT STEP   36, TIME STEP    1, STRESS PERIOD    2
                     -----------------------------------------------------------------------------------------

                                                             IN                           OUT
                                                      ----------------             ----------------
                               CONSTANT CONCENTRATION:    0.000000                    0.000000    
                                        CONSTANT HEAD:    462.8413                   -257.0444    
                                               STREAM:    0.000000                   -205.8020    
                               MASS STOR (FLOW MODEL):   0.5160894E-02              -0.6986623E-07
                                MASS STORAGE (SOLUTE):    0.000000                    0.000000    
                            ---------------------------------------------------------------------------
                                              [TOTAL]:    462.8465     KG            -462.8464     KG  

                                                          NET (IN - OUT):   0.1220703E-03
                                                   DISCREPANCY (PERCENT):   0.2637383E-04
     2 CALLS TO GCG PACKAGE FOR TRANSPORT TIME STEP    37 IN FLOW TIME STEP     1 STRESS PERIOD     2
      2 TOTAL ITERATIONS
  MAXIMUM CONCENTRATION CHANGES FOR EACH ITERATION:
  MAX. CHANGE LAYER,ROW,COL MAX. CHANGE LAYER,ROW,COL MAX. CHANGE LAYER,ROW,COL MAX. CHANGE LAYER,ROW,COL MAX. CHANGE LAYER,ROW,COL
 ------------------------------------------------------------------------------------------------------------------------------------
    0.000     (  1,  1,  1)   0.000     (  1,  1,  1)


                     STREAM MASS BUDGETS AT END OF TRANSPORT STEP   37, TIME STEP    1, STRESS PERIOD    2 FOR COMPONENT   1
                     -------------------------------------------------------------------------------------------------------

                                         CUMULATIVE MASS [M]                                     MASS FOR THIS TIME STEP [M]
                                         -------------------                                    --------------
                      STREAM DEPLETION =   7.358974                          STREAM DEPLETION =  0.3057783E-01
                      INFLOW TO STREAM =   2364.298                          INFLOW TO STREAM =   25.65000    
                          GW TO STREAM =   206.8010                              GW TO STREAM =  0.9990391    
                         PRECIPITATION =   0.000000                             PRECIPITATION =   0.000000    
                                RUNOFF =   0.000000                                    RUNOFF =   0.000000    
                CONSTANT CONCENTRATION =   0.000000                    CONSTANT CONCENTRATION =   0.000000    
                             MASS GAIN =   0.000000                                 MASS GAIN =   0.000000    
                                         -------------------                                    --------------
                              TOTAL IN =   2578.458                                  TOTAL IN =   26.67962    

                   STREAM ACCUMULATION =   648.3849                       STREAM ACCUMULATION =   17.35557    
                        STREAM OUTFLOW =   1930.081                            STREAM OUTFLOW =   9.324040    
                          STREAM TO GW =   0.000000                              STREAM TO GW =   0.000000    
                CONSTANT CONCENTRATION =   0.000000                    CONSTANT CONCENTRATION =   0.000000    
                           EVAPORATION =   0.000000                               EVAPORATION =   0.000000    
                             MASS LOSS =   0.000000                                 MASS LOSS =   0.000000    
                                         -------------------                                    --------------
                             TOTAL OUT =   2578.466                                 TOTAL OUT =   26.67961    

                        NET (IN - OUT) = -0.8056641E-02                        NET (IN - OUT) =  0.9536743E-05
                 DISCREPANCY (PERCENT) = -0.3124592E-03                 DISCREPANCY (PERCENT) =  0.3574543E-04
                                              FLOW ERR (QIN-QOUT-DV) = -0.9536743E-06 [L3/T]




 >>>>>>>>>>>>>>>>>>>>>>>>>>>>>>>>>>>>>>>>>>>>>>>>>>>>>>>FOR COMPONENT NO. 01<<<<<<<<<<<<<<<<<<<<<<<<<<<<<<<<<<<<<<<<<<<<<<<<<<<<<<<


                                            -------------------------------------------
                                                      TRANSPORT STEP NO.   37
                                            -------------------------------------------

 TOTAL ELAPSED TIME SINCE BEGINNING OF SIMULATION =   37260.00    D   
 .....................................................................

                     CUMULATIVE MASS BUDGETS AT END OF TRANSPORT STEP   37, TIME STEP    1, STRESS PERIOD    2
                     -----------------------------------------------------------------------------------------

                                                             IN                           OUT
                                                      ----------------             ----------------
                               CONSTANT CONCENTRATION:    0.000000                    0.000000    
                                        CONSTANT HEAD:    465.0882                   -258.2921    
                                               STREAM:    0.000000                   -206.8010    
                               MASS STOR (FLOW MODEL):   0.5160920E-02              -0.6986623E-07
                                MASS STORAGE (SOLUTE):    0.000000                    0.000000    
                            ---------------------------------------------------------------------------
                                              [TOTAL]:    465.0933     KG            -465.0932     KG  

                                                          NET (IN - OUT):   0.1525879E-03
                                                   DISCREPANCY (PERCENT):   0.3280802E-04
     2 CALLS TO GCG PACKAGE FOR TRANSPORT TIME STEP    38 IN FLOW TIME STEP     1 STRESS PERIOD     2
      2 TOTAL ITERATIONS
  MAXIMUM CONCENTRATION CHANGES FOR EACH ITERATION:
  MAX. CHANGE LAYER,ROW,COL MAX. CHANGE LAYER,ROW,COL MAX. CHANGE LAYER,ROW,COL MAX. CHANGE LAYER,ROW,COL MAX. CHANGE LAYER,ROW,COL
 ------------------------------------------------------------------------------------------------------------------------------------
    0.000     (  1,  1,  1)   0.000     (  1,  1,  1)


                     STREAM MASS BUDGETS AT END OF TRANSPORT STEP   38, TIME STEP    1, STRESS PERIOD    2 FOR COMPONENT   1
                     -------------------------------------------------------------------------------------------------------

                                         CUMULATIVE MASS [M]                                     MASS FOR THIS TIME STEP [M]
                                         -------------------                                    --------------
                      STREAM DEPLETION =   7.387794                          STREAM DEPLETION =  0.2881941E-01
                      INFLOW TO STREAM =   2389.948                          INFLOW TO STREAM =   25.65000    
                          GW TO STREAM =   207.8001                              GW TO STREAM =  0.9990391    
                         PRECIPITATION =   0.000000                             PRECIPITATION =   0.000000    
                                RUNOFF =   0.000000                                    RUNOFF =   0.000000    
                CONSTANT CONCENTRATION =   0.000000                    CONSTANT CONCENTRATION =   0.000000    
                             MASS GAIN =   0.000000                                 MASS GAIN =   0.000000    
                                         -------------------                                    --------------
                              TOTAL IN =   2605.136                                  TOTAL IN =   26.67786    

                   STREAM ACCUMULATION =   665.7387                       STREAM ACCUMULATION =   17.35381    
                        STREAM OUTFLOW =   1939.405                            STREAM OUTFLOW =   9.324041    
                          STREAM TO GW =   0.000000                              STREAM TO GW =   0.000000    
                CONSTANT CONCENTRATION =   0.000000                    CONSTANT CONCENTRATION =   0.000000    
                           EVAPORATION =   0.000000                               EVAPORATION =   0.000000    
                             MASS LOSS =   0.000000                                 MASS LOSS =   0.000000    
                                         -------------------                                    --------------
                             TOTAL OUT =   2605.144                                 TOTAL OUT =   26.67785    

                        NET (IN - OUT) = -0.8300781E-02                        NET (IN - OUT) =  0.3814697E-05
                 DISCREPANCY (PERCENT) = -0.3186309E-03                 DISCREPANCY (PERCENT) =  0.1429911E-04
                                              FLOW ERR (QIN-QOUT-DV) = -0.9536743E-06 [L3/T]




 >>>>>>>>>>>>>>>>>>>>>>>>>>>>>>>>>>>>>>>>>>>>>>>>>>>>>>>FOR COMPONENT NO. 01<<<<<<<<<<<<<<<<<<<<<<<<<<<<<<<<<<<<<<<<<<<<<<<<<<<<<<<


                                            -------------------------------------------
                                                      TRANSPORT STEP NO.   38
                                            -------------------------------------------

 TOTAL ELAPSED TIME SINCE BEGINNING OF SIMULATION =   37440.00    D   
 .....................................................................

                     CUMULATIVE MASS BUDGETS AT END OF TRANSPORT STEP   38, TIME STEP    1, STRESS PERIOD    2
                     -----------------------------------------------------------------------------------------

                                                             IN                           OUT
                                                      ----------------             ----------------
                               CONSTANT CONCENTRATION:    0.000000                    0.000000    
                                        CONSTANT HEAD:    467.3350                   -259.5399    
                                               STREAM:    0.000000                   -207.8001    
                               MASS STOR (FLOW MODEL):   0.5160945E-02              -0.6986623E-07
                                MASS STORAGE (SOLUTE):    0.000000                    0.000000    
                            ---------------------------------------------------------------------------
                                              [TOTAL]:    467.3401     KG            -467.3400     KG  

                                                          NET (IN - OUT):   0.1831055E-03
                                                   DISCREPANCY (PERCENT):   0.3918035E-04
     2 CALLS TO GCG PACKAGE FOR TRANSPORT TIME STEP    39 IN FLOW TIME STEP     1 STRESS PERIOD     2
      2 TOTAL ITERATIONS
  MAXIMUM CONCENTRATION CHANGES FOR EACH ITERATION:
  MAX. CHANGE LAYER,ROW,COL MAX. CHANGE LAYER,ROW,COL MAX. CHANGE LAYER,ROW,COL MAX. CHANGE LAYER,ROW,COL MAX. CHANGE LAYER,ROW,COL
 ------------------------------------------------------------------------------------------------------------------------------------
    0.000     (  1,  1,  1)   0.000     (  1,  1,  1)


                     STREAM MASS BUDGETS AT END OF TRANSPORT STEP   39, TIME STEP    1, STRESS PERIOD    2 FOR COMPONENT   1
                     -------------------------------------------------------------------------------------------------------

                                         CUMULATIVE MASS [M]                                     MASS FOR THIS TIME STEP [M]
                                         -------------------                                    --------------
                      STREAM DEPLETION =   7.415124                          STREAM DEPLETION =  0.2733017E-01
                      INFLOW TO STREAM =   2415.598                          INFLOW TO STREAM =   25.65000    
                          GW TO STREAM =   208.7991                              GW TO STREAM =  0.9990391    
                         PRECIPITATION =   0.000000                             PRECIPITATION =   0.000000    
                                RUNOFF =   0.000000                                    RUNOFF =   0.000000    
                CONSTANT CONCENTRATION =   0.000000                    CONSTANT CONCENTRATION =   0.000000    
                             MASS GAIN =   0.000000                                 MASS GAIN =   0.000000    
                                         -------------------                                    --------------
                              TOTAL IN =   2631.812                                  TOTAL IN =   26.67637    

                   STREAM ACCUMULATION =   683.0911                       STREAM ACCUMULATION =   17.35233    
                        STREAM OUTFLOW =   1948.729                            STREAM OUTFLOW =   9.324041    
                          STREAM TO GW =   0.000000                              STREAM TO GW =   0.000000    
                CONSTANT CONCENTRATION =   0.000000                    CONSTANT CONCENTRATION =   0.000000    
                           EVAPORATION =   0.000000                               EVAPORATION =   0.000000    
                             MASS LOSS =   0.000000                                 MASS LOSS =   0.000000    
                                         -------------------                                    --------------
                             TOTAL OUT =   2631.820                                 TOTAL OUT =   26.67637    

                        NET (IN - OUT) = -0.8300781E-02                        NET (IN - OUT) = -0.3814697E-05
                 DISCREPANCY (PERCENT) = -0.3154013E-03                 DISCREPANCY (PERCENT) = -0.1429991E-04
                                              FLOW ERR (QIN-QOUT-DV) = -0.9536743E-06 [L3/T]




 >>>>>>>>>>>>>>>>>>>>>>>>>>>>>>>>>>>>>>>>>>>>>>>>>>>>>>>FOR COMPONENT NO. 01<<<<<<<<<<<<<<<<<<<<<<<<<<<<<<<<<<<<<<<<<<<<<<<<<<<<<<<


                                            -------------------------------------------
                                                      TRANSPORT STEP NO.   39
                                            -------------------------------------------

 TOTAL ELAPSED TIME SINCE BEGINNING OF SIMULATION =   37620.00    D   
 .....................................................................

                     CUMULATIVE MASS BUDGETS AT END OF TRANSPORT STEP   39, TIME STEP    1, STRESS PERIOD    2
                     -----------------------------------------------------------------------------------------

                                                             IN                           OUT
                                                      ----------------             ----------------
                               CONSTANT CONCENTRATION:    0.000000                    0.000000    
                                        CONSTANT HEAD:    469.5818                   -260.7877    
                                               STREAM:    0.000000                   -208.7991    
                               MASS STOR (FLOW MODEL):   0.5160971E-02              -0.6986623E-07
                                MASS STORAGE (SOLUTE):    0.000000                    0.000000    
                            ---------------------------------------------------------------------------
                                              [TOTAL]:    469.5870     KG            -469.5868     KG  

                                                          NET (IN - OUT):   0.1831055E-03
                                                   DISCREPANCY (PERCENT):   0.3899288E-04
     2 CALLS TO GCG PACKAGE FOR TRANSPORT TIME STEP    40 IN FLOW TIME STEP     1 STRESS PERIOD     2
      2 TOTAL ITERATIONS
  MAXIMUM CONCENTRATION CHANGES FOR EACH ITERATION:
  MAX. CHANGE LAYER,ROW,COL MAX. CHANGE LAYER,ROW,COL MAX. CHANGE LAYER,ROW,COL MAX. CHANGE LAYER,ROW,COL MAX. CHANGE LAYER,ROW,COL
 ------------------------------------------------------------------------------------------------------------------------------------
    0.000     (  1,  1,  1)   0.000     (  1,  1,  1)


                     STREAM MASS BUDGETS AT END OF TRANSPORT STEP   40, TIME STEP    1, STRESS PERIOD    2 FOR COMPONENT   1
                     -------------------------------------------------------------------------------------------------------

                                         CUMULATIVE MASS [M]                                     MASS FOR THIS TIME STEP [M]
                                         -------------------                                    --------------
                      STREAM DEPLETION =   7.441088                          STREAM DEPLETION =  0.2596343E-01
                      INFLOW TO STREAM =   2441.248                          INFLOW TO STREAM =   25.65000    
                          GW TO STREAM =   209.7981                              GW TO STREAM =  0.9990391    
                         PRECIPITATION =   0.000000                             PRECIPITATION =   0.000000    
                                RUNOFF =   0.000000                                    RUNOFF =   0.000000    
                CONSTANT CONCENTRATION =   0.000000                    CONSTANT CONCENTRATION =   0.000000    
                             MASS GAIN =   0.000000                                 MASS GAIN =   0.000000    
                                         -------------------                                    --------------
                              TOTAL IN =   2658.487                                  TOTAL IN =   26.67500    

                   STREAM ACCUMULATION =   700.4420                       STREAM ACCUMULATION =   17.35094    
                        STREAM OUTFLOW =   1958.053                            STREAM OUTFLOW =   9.324041    
                          STREAM TO GW =   0.000000                              STREAM TO GW =   0.000000    
                CONSTANT CONCENTRATION =   0.000000                    CONSTANT CONCENTRATION =   0.000000    
                           EVAPORATION =   0.000000                               EVAPORATION =   0.000000    
                             MASS LOSS =   0.000000                                 MASS LOSS =   0.000000    
                                         -------------------                                    --------------
                             TOTAL OUT =   2658.496                                 TOTAL OUT =   26.67498    

                        NET (IN - OUT) = -0.8544922E-02                        NET (IN - OUT) =  0.1907349E-04
                 DISCREPANCY (PERCENT) = -0.3214200E-03                 DISCREPANCY (PERCENT) =  0.7150325E-04
                                              FLOW ERR (QIN-QOUT-DV) = -0.9536743E-06 [L3/T]




 >>>>>>>>>>>>>>>>>>>>>>>>>>>>>>>>>>>>>>>>>>>>>>>>>>>>>>>FOR COMPONENT NO. 01<<<<<<<<<<<<<<<<<<<<<<<<<<<<<<<<<<<<<<<<<<<<<<<<<<<<<<<


                                            -------------------------------------------
                                                      TRANSPORT STEP NO.   40
                                            -------------------------------------------

 TOTAL ELAPSED TIME SINCE BEGINNING OF SIMULATION =   37800.00    D   
 .....................................................................

                     CUMULATIVE MASS BUDGETS AT END OF TRANSPORT STEP   40, TIME STEP    1, STRESS PERIOD    2
                     -----------------------------------------------------------------------------------------

                                                             IN                           OUT
                                                      ----------------             ----------------
                               CONSTANT CONCENTRATION:    0.000000                    0.000000    
                                        CONSTANT HEAD:    471.8286                   -262.0355    
                                               STREAM:    0.000000                   -209.7981    
                               MASS STOR (FLOW MODEL):   0.5160997E-02              -0.6986623E-07
                                MASS STORAGE (SOLUTE):    0.000000                    0.000000    
                            ---------------------------------------------------------------------------
                                              [TOTAL]:    471.8338     KG            -471.8336     KG  

                                                          NET (IN - OUT):   0.1831055E-03
                                                   DISCREPANCY (PERCENT):   0.3880720E-04
     2 CALLS TO GCG PACKAGE FOR TRANSPORT TIME STEP    41 IN FLOW TIME STEP     1 STRESS PERIOD     2
      2 TOTAL ITERATIONS
  MAXIMUM CONCENTRATION CHANGES FOR EACH ITERATION:
  MAX. CHANGE LAYER,ROW,COL MAX. CHANGE LAYER,ROW,COL MAX. CHANGE LAYER,ROW,COL MAX. CHANGE LAYER,ROW,COL MAX. CHANGE LAYER,ROW,COL
 ------------------------------------------------------------------------------------------------------------------------------------
    0.000     (  1,  1,  1)   0.000     (  1,  1,  1)


                     STREAM MASS BUDGETS AT END OF TRANSPORT STEP   41, TIME STEP    1, STRESS PERIOD    2 FOR COMPONENT   1
                     -------------------------------------------------------------------------------------------------------

                                         CUMULATIVE MASS [M]                                     MASS FOR THIS TIME STEP [M]
                                         -------------------                                    --------------
                      STREAM DEPLETION =   7.465743                          STREAM DEPLETION =  0.2465535E-01
                      INFLOW TO STREAM =   2466.898                          INFLOW TO STREAM =   25.65000    
                          GW TO STREAM =   210.7972                              GW TO STREAM =  0.9990391    
                         PRECIPITATION =   0.000000                             PRECIPITATION =   0.000000    
                                RUNOFF =   0.000000                                    RUNOFF =   0.000000    
                CONSTANT CONCENTRATION =   0.000000                    CONSTANT CONCENTRATION =   0.000000    
                             MASS GAIN =   0.000000                                 MASS GAIN =   0.000000    
                                         -------------------                                    --------------
                              TOTAL IN =   2685.161                                  TOTAL IN =   26.67369    

                   STREAM ACCUMULATION =   717.7916                       STREAM ACCUMULATION =   17.34963    
                        STREAM OUTFLOW =   1967.378                            STREAM OUTFLOW =   9.324041    
                          STREAM TO GW =   0.000000                              STREAM TO GW =   0.000000    
                CONSTANT CONCENTRATION =   0.000000                    CONSTANT CONCENTRATION =   0.000000    
                           EVAPORATION =   0.000000                               EVAPORATION =   0.000000    
                             MASS LOSS =   0.000000                                 MASS LOSS =   0.000000    
                                         -------------------                                    --------------
                             TOTAL OUT =   2685.169                                 TOTAL OUT =   26.67367    

                        NET (IN - OUT) = -0.8544922E-02                        NET (IN - OUT) =  0.2479553E-04
                 DISCREPANCY (PERCENT) = -0.3182271E-03                 DISCREPANCY (PERCENT) =  0.9295878E-04
                                              FLOW ERR (QIN-QOUT-DV) = -0.9536743E-06 [L3/T]




 >>>>>>>>>>>>>>>>>>>>>>>>>>>>>>>>>>>>>>>>>>>>>>>>>>>>>>>FOR COMPONENT NO. 01<<<<<<<<<<<<<<<<<<<<<<<<<<<<<<<<<<<<<<<<<<<<<<<<<<<<<<<


                                            -------------------------------------------
                                                      TRANSPORT STEP NO.   41
                                            -------------------------------------------

 TOTAL ELAPSED TIME SINCE BEGINNING OF SIMULATION =   37980.00    D   
 .....................................................................

                     CUMULATIVE MASS BUDGETS AT END OF TRANSPORT STEP   41, TIME STEP    1, STRESS PERIOD    2
                     -----------------------------------------------------------------------------------------

                                                             IN                           OUT
                                                      ----------------             ----------------
                               CONSTANT CONCENTRATION:    0.000000                    0.000000    
                                        CONSTANT HEAD:    474.0755                   -263.2832    
                                               STREAM:    0.000000                   -210.7972    
                               MASS STOR (FLOW MODEL):   0.5161022E-02              -0.6986623E-07
                                MASS STORAGE (SOLUTE):    0.000000                    0.000000    
                            ---------------------------------------------------------------------------
                                              [TOTAL]:    474.0806     KG            -474.0804     KG  

                                                          NET (IN - OUT):   0.2136230E-03
                                                   DISCREPANCY (PERCENT):   0.4506050E-04
     2 CALLS TO GCG PACKAGE FOR TRANSPORT TIME STEP    42 IN FLOW TIME STEP     1 STRESS PERIOD     2
      2 TOTAL ITERATIONS
  MAXIMUM CONCENTRATION CHANGES FOR EACH ITERATION:
  MAX. CHANGE LAYER,ROW,COL MAX. CHANGE LAYER,ROW,COL MAX. CHANGE LAYER,ROW,COL MAX. CHANGE LAYER,ROW,COL MAX. CHANGE LAYER,ROW,COL
 ------------------------------------------------------------------------------------------------------------------------------------
    0.000     (  1,  1,  1)   0.000     (  1,  1,  1)


                     STREAM MASS BUDGETS AT END OF TRANSPORT STEP   42, TIME STEP    1, STRESS PERIOD    2 FOR COMPONENT   1
                     -------------------------------------------------------------------------------------------------------

                                         CUMULATIVE MASS [M]                                     MASS FOR THIS TIME STEP [M]
                                         -------------------                                    --------------
                      STREAM DEPLETION =   7.489138                          STREAM DEPLETION =  0.2339504E-01
                      INFLOW TO STREAM =   2492.548                          INFLOW TO STREAM =   25.65000    
                          GW TO STREAM =   211.7962                              GW TO STREAM =  0.9990391    
                         PRECIPITATION =   0.000000                             PRECIPITATION =   0.000000    
                                RUNOFF =   0.000000                                    RUNOFF =   0.000000    
                CONSTANT CONCENTRATION =   0.000000                    CONSTANT CONCENTRATION =   0.000000    
                             MASS GAIN =   0.000000                                 MASS GAIN =   0.000000    
                                         -------------------                                    --------------
                              TOTAL IN =   2711.833                                  TOTAL IN =   26.67243    

                   STREAM ACCUMULATION =   735.1400                       STREAM ACCUMULATION =   17.34839    
                        STREAM OUTFLOW =   1976.702                            STREAM OUTFLOW =   9.324041    
                          STREAM TO GW =   0.000000                              STREAM TO GW =   0.000000    
                CONSTANT CONCENTRATION =   0.000000                    CONSTANT CONCENTRATION =   0.000000    
                           EVAPORATION =   0.000000                               EVAPORATION =   0.000000    
                             MASS LOSS =   0.000000                                 MASS LOSS =   0.000000    
                                         -------------------                                    --------------
                             TOTAL OUT =   2711.842                                 TOTAL OUT =   26.67244    

                        NET (IN - OUT) = -0.8789062E-02                        NET (IN - OUT) = -0.1907349E-05
                 DISCREPANCY (PERCENT) = -0.3240999E-03                 DISCREPANCY (PERCENT) = -0.7151010E-05
                                              FLOW ERR (QIN-QOUT-DV) = -0.9536743E-06 [L3/T]




 >>>>>>>>>>>>>>>>>>>>>>>>>>>>>>>>>>>>>>>>>>>>>>>>>>>>>>>FOR COMPONENT NO. 01<<<<<<<<<<<<<<<<<<<<<<<<<<<<<<<<<<<<<<<<<<<<<<<<<<<<<<<


                                            -------------------------------------------
                                                      TRANSPORT STEP NO.   42
                                            -------------------------------------------

 TOTAL ELAPSED TIME SINCE BEGINNING OF SIMULATION =   38160.00    D   
 .....................................................................

                     CUMULATIVE MASS BUDGETS AT END OF TRANSPORT STEP   42, TIME STEP    1, STRESS PERIOD    2
                     -----------------------------------------------------------------------------------------

                                                             IN                           OUT
                                                      ----------------             ----------------
                               CONSTANT CONCENTRATION:    0.000000                    0.000000    
                                        CONSTANT HEAD:    476.3223                   -264.5310    
                                               STREAM:    0.000000                   -211.7962    
                               MASS STOR (FLOW MODEL):   0.5161048E-02              -0.6986623E-07
                                MASS STORAGE (SOLUTE):    0.000000                    0.000000    
                            ---------------------------------------------------------------------------
                                              [TOTAL]:    476.3275     KG            -476.3272     KG  

                                                          NET (IN - OUT):   0.2441406E-03
                                                   DISCREPANCY (PERCENT):   0.5125480E-04
     2 CALLS TO GCG PACKAGE FOR TRANSPORT TIME STEP    43 IN FLOW TIME STEP     1 STRESS PERIOD     2
      2 TOTAL ITERATIONS
  MAXIMUM CONCENTRATION CHANGES FOR EACH ITERATION:
  MAX. CHANGE LAYER,ROW,COL MAX. CHANGE LAYER,ROW,COL MAX. CHANGE LAYER,ROW,COL MAX. CHANGE LAYER,ROW,COL MAX. CHANGE LAYER,ROW,COL
 ------------------------------------------------------------------------------------------------------------------------------------
    0.000     (  1,  1,  1)   0.000     (  1,  1,  1)


                     STREAM MASS BUDGETS AT END OF TRANSPORT STEP   43, TIME STEP    1, STRESS PERIOD    2 FOR COMPONENT   1
                     -------------------------------------------------------------------------------------------------------

                                         CUMULATIVE MASS [M]                                     MASS FOR THIS TIME STEP [M]
                                         -------------------                                    --------------
                      STREAM DEPLETION =   7.511322                          STREAM DEPLETION =  0.2218395E-01
                      INFLOW TO STREAM =   2518.198                          INFLOW TO STREAM =   25.65000    
                          GW TO STREAM =   212.7953                              GW TO STREAM =  0.9990391    
                         PRECIPITATION =   0.000000                             PRECIPITATION =   0.000000    
                                RUNOFF =   0.000000                                    RUNOFF =   0.000000    
                CONSTANT CONCENTRATION =   0.000000                    CONSTANT CONCENTRATION =   0.000000    
                             MASS GAIN =   0.000000                                 MASS GAIN =   0.000000    
                                         -------------------                                    --------------
                              TOTAL IN =   2738.504                                  TOTAL IN =   26.67122    

                   STREAM ACCUMULATION =   752.4872                       STREAM ACCUMULATION =   17.34717    
                        STREAM OUTFLOW =   1986.026                            STREAM OUTFLOW =   9.324041    
                          STREAM TO GW =   0.000000                              STREAM TO GW =   0.000000    
                CONSTANT CONCENTRATION =   0.000000                    CONSTANT CONCENTRATION =   0.000000    
                           EVAPORATION =   0.000000                               EVAPORATION =   0.000000    
                             MASS LOSS =   0.000000                                 MASS LOSS =   0.000000    
                                         -------------------                                    --------------
                             TOTAL OUT =   2738.513                                 TOTAL OUT =   26.67122    

                        NET (IN - OUT) = -0.8789062E-02                        NET (IN - OUT) =  0.7629395E-05
                 DISCREPANCY (PERCENT) = -0.3209434E-03                 DISCREPANCY (PERCENT) =  0.2860535E-04
                                              FLOW ERR (QIN-QOUT-DV) = -0.9536743E-06 [L3/T]




 >>>>>>>>>>>>>>>>>>>>>>>>>>>>>>>>>>>>>>>>>>>>>>>>>>>>>>>FOR COMPONENT NO. 01<<<<<<<<<<<<<<<<<<<<<<<<<<<<<<<<<<<<<<<<<<<<<<<<<<<<<<<


                                            -------------------------------------------
                                                      TRANSPORT STEP NO.   43
                                            -------------------------------------------

 TOTAL ELAPSED TIME SINCE BEGINNING OF SIMULATION =   38340.00    D   
 .....................................................................

                     CUMULATIVE MASS BUDGETS AT END OF TRANSPORT STEP   43, TIME STEP    1, STRESS PERIOD    2
                     -----------------------------------------------------------------------------------------

                                                             IN                           OUT
                                                      ----------------             ----------------
                               CONSTANT CONCENTRATION:    0.000000                    0.000000    
                                        CONSTANT HEAD:    478.5691                   -265.7788    
                                               STREAM:    0.000000                   -212.7953    
                               MASS STOR (FLOW MODEL):   0.5161074E-02              -0.6986623E-07
                                MASS STORAGE (SOLUTE):    0.000000                    0.000000    
                            ---------------------------------------------------------------------------
                                              [TOTAL]:    478.5743     KG            -478.5740     KG  

                                                          NET (IN - OUT):   0.2441406E-03
                                                   DISCREPANCY (PERCENT):   0.5101417E-04
     2 CALLS TO GCG PACKAGE FOR TRANSPORT TIME STEP    44 IN FLOW TIME STEP     1 STRESS PERIOD     2
      2 TOTAL ITERATIONS
  MAXIMUM CONCENTRATION CHANGES FOR EACH ITERATION:
  MAX. CHANGE LAYER,ROW,COL MAX. CHANGE LAYER,ROW,COL MAX. CHANGE LAYER,ROW,COL MAX. CHANGE LAYER,ROW,COL MAX. CHANGE LAYER,ROW,COL
 ------------------------------------------------------------------------------------------------------------------------------------
    0.000     (  1,  1,  1)   0.000     (  1,  1,  1)


                     STREAM MASS BUDGETS AT END OF TRANSPORT STEP   44, TIME STEP    1, STRESS PERIOD    2 FOR COMPONENT   1
                     -------------------------------------------------------------------------------------------------------

                                         CUMULATIVE MASS [M]                                     MASS FOR THIS TIME STEP [M]
                                         -------------------                                    --------------
                      STREAM DEPLETION =   7.532350                          STREAM DEPLETION =  0.2102785E-01
                      INFLOW TO STREAM =   2543.847                          INFLOW TO STREAM =   25.65000    
                          GW TO STREAM =   213.7943                              GW TO STREAM =  0.9990391    
                         PRECIPITATION =   0.000000                             PRECIPITATION =   0.000000    
                                RUNOFF =   0.000000                                    RUNOFF =   0.000000    
                CONSTANT CONCENTRATION =   0.000000                    CONSTANT CONCENTRATION =   0.000000    
                             MASS GAIN =   0.000000                                 MASS GAIN =   0.000000    
                                         -------------------                                    --------------
                              TOTAL IN =   2765.174                                  TOTAL IN =   26.67007    

                   STREAM ACCUMULATION =   769.8332                       STREAM ACCUMULATION =   17.34602    
                        STREAM OUTFLOW =   1995.350                            STREAM OUTFLOW =   9.324041    
                          STREAM TO GW =   0.000000                              STREAM TO GW =   0.000000    
                CONSTANT CONCENTRATION =   0.000000                    CONSTANT CONCENTRATION =   0.000000    
                           EVAPORATION =   0.000000                               EVAPORATION =   0.000000    
                             MASS LOSS =   0.000000                                 MASS LOSS =   0.000000    
                                         -------------------                                    --------------
                             TOTAL OUT =   2765.183                                 TOTAL OUT =   26.67006    

                        NET (IN - OUT) = -0.9033203E-02                        NET (IN - OUT) =  0.7629395E-05
                 DISCREPANCY (PERCENT) = -0.3266770E-03                 DISCREPANCY (PERCENT) =  0.2860659E-04
                                              FLOW ERR (QIN-QOUT-DV) = -0.9536743E-06 [L3/T]




 >>>>>>>>>>>>>>>>>>>>>>>>>>>>>>>>>>>>>>>>>>>>>>>>>>>>>>>FOR COMPONENT NO. 01<<<<<<<<<<<<<<<<<<<<<<<<<<<<<<<<<<<<<<<<<<<<<<<<<<<<<<<


                                            -------------------------------------------
                                                      TRANSPORT STEP NO.   44
                                            -------------------------------------------

 TOTAL ELAPSED TIME SINCE BEGINNING OF SIMULATION =   38520.00    D   
 .....................................................................

                     CUMULATIVE MASS BUDGETS AT END OF TRANSPORT STEP   44, TIME STEP    1, STRESS PERIOD    2
                     -----------------------------------------------------------------------------------------

                                                             IN                           OUT
                                                      ----------------             ----------------
                               CONSTANT CONCENTRATION:    0.000000                    0.000000    
                                        CONSTANT HEAD:    480.8159                   -267.0266    
                                               STREAM:    0.000000                   -213.7943    
                               MASS STOR (FLOW MODEL):   0.5161099E-02              -0.6986623E-07
                                MASS STORAGE (SOLUTE):    0.000000                    0.000000    
                            ---------------------------------------------------------------------------
                                              [TOTAL]:    480.8211     KG            -480.8209     KG  

                                                          NET (IN - OUT):   0.2441406E-03
                                                   DISCREPANCY (PERCENT):   0.5077578E-04
     2 CALLS TO GCG PACKAGE FOR TRANSPORT TIME STEP    45 IN FLOW TIME STEP     1 STRESS PERIOD     2
      2 TOTAL ITERATIONS
  MAXIMUM CONCENTRATION CHANGES FOR EACH ITERATION:
  MAX. CHANGE LAYER,ROW,COL MAX. CHANGE LAYER,ROW,COL MAX. CHANGE LAYER,ROW,COL MAX. CHANGE LAYER,ROW,COL MAX. CHANGE LAYER,ROW,COL
 ------------------------------------------------------------------------------------------------------------------------------------
    0.000     (  1,  1,  1)   0.000     (  1,  1,  1)


                     STREAM MASS BUDGETS AT END OF TRANSPORT STEP   45, TIME STEP    1, STRESS PERIOD    2 FOR COMPONENT   1
                     -------------------------------------------------------------------------------------------------------

                                         CUMULATIVE MASS [M]                                     MASS FOR THIS TIME STEP [M]
                                         -------------------                                    --------------
                      STREAM DEPLETION =   7.552273                          STREAM DEPLETION =  0.1992288E-01
                      INFLOW TO STREAM =   2569.497                          INFLOW TO STREAM =   25.65000    
                          GW TO STREAM =   214.7933                              GW TO STREAM =  0.9990391    
                         PRECIPITATION =   0.000000                             PRECIPITATION =   0.000000    
                                RUNOFF =   0.000000                                    RUNOFF =   0.000000    
                CONSTANT CONCENTRATION =   0.000000                    CONSTANT CONCENTRATION =   0.000000    
                             MASS GAIN =   0.000000                                 MASS GAIN =   0.000000    
                                         -------------------                                    --------------
                              TOTAL IN =   2791.843                                  TOTAL IN =   26.66896    

                   STREAM ACCUMULATION =   787.1781                       STREAM ACCUMULATION =   17.34491    
                        STREAM OUTFLOW =   2004.674                            STREAM OUTFLOW =   9.324041    
                          STREAM TO GW =   0.000000                              STREAM TO GW =   0.000000    
                CONSTANT CONCENTRATION =   0.000000                    CONSTANT CONCENTRATION =   0.000000    
                           EVAPORATION =   0.000000                               EVAPORATION =   0.000000    
                             MASS LOSS =   0.000000                                 MASS LOSS =   0.000000    
                                         -------------------                                    --------------
                             TOTAL OUT =   2791.852                                 TOTAL OUT =   26.66895    

                        NET (IN - OUT) = -0.9033203E-02                        NET (IN - OUT) =  0.5722046E-05
                 DISCREPANCY (PERCENT) = -0.3235565E-03                 DISCREPANCY (PERCENT) =  0.2145583E-04
                                              FLOW ERR (QIN-QOUT-DV) = -0.9536743E-06 [L3/T]




 >>>>>>>>>>>>>>>>>>>>>>>>>>>>>>>>>>>>>>>>>>>>>>>>>>>>>>>FOR COMPONENT NO. 01<<<<<<<<<<<<<<<<<<<<<<<<<<<<<<<<<<<<<<<<<<<<<<<<<<<<<<<


                                            -------------------------------------------
                                                      TRANSPORT STEP NO.   45
                                            -------------------------------------------

 TOTAL ELAPSED TIME SINCE BEGINNING OF SIMULATION =   38700.00    D   
 .....................................................................

                     CUMULATIVE MASS BUDGETS AT END OF TRANSPORT STEP   45, TIME STEP    1, STRESS PERIOD    2
                     -----------------------------------------------------------------------------------------

                                                             IN                           OUT
                                                      ----------------             ----------------
                               CONSTANT CONCENTRATION:    0.000000                    0.000000    
                                        CONSTANT HEAD:    483.0628                   -268.2743    
                                               STREAM:    0.000000                   -214.7933    
                               MASS STOR (FLOW MODEL):   0.5161125E-02              -0.6986623E-07
                                MASS STORAGE (SOLUTE):    0.000000                    0.000000    
                            ---------------------------------------------------------------------------
                                              [TOTAL]:    483.0679     KG            -483.0677     KG  

                                                          NET (IN - OUT):   0.2746582E-03
                                                   DISCREPANCY (PERCENT):   0.5685707E-04
     2 CALLS TO GCG PACKAGE FOR TRANSPORT TIME STEP    46 IN FLOW TIME STEP     1 STRESS PERIOD     2
      2 TOTAL ITERATIONS
  MAXIMUM CONCENTRATION CHANGES FOR EACH ITERATION:
  MAX. CHANGE LAYER,ROW,COL MAX. CHANGE LAYER,ROW,COL MAX. CHANGE LAYER,ROW,COL MAX. CHANGE LAYER,ROW,COL MAX. CHANGE LAYER,ROW,COL
 ------------------------------------------------------------------------------------------------------------------------------------
    0.000     (  1,  1,  1)   0.000     (  1,  1,  1)


                     STREAM MASS BUDGETS AT END OF TRANSPORT STEP   46, TIME STEP    1, STRESS PERIOD    2 FOR COMPONENT   1
                     -------------------------------------------------------------------------------------------------------

                                         CUMULATIVE MASS [M]                                     MASS FOR THIS TIME STEP [M]
                                         -------------------                                    --------------
                      STREAM DEPLETION =   7.571139                          STREAM DEPLETION =  0.1886607E-01
                      INFLOW TO STREAM =   2595.147                          INFLOW TO STREAM =   25.65000    
                          GW TO STREAM =   215.7924                              GW TO STREAM =  0.9990391    
                         PRECIPITATION =   0.000000                             PRECIPITATION =   0.000000    
                                RUNOFF =   0.000000                                    RUNOFF =   0.000000    
                CONSTANT CONCENTRATION =   0.000000                    CONSTANT CONCENTRATION =   0.000000    
                             MASS GAIN =   0.000000                                 MASS GAIN =   0.000000    
                                         -------------------                                    --------------
                              TOTAL IN =   2818.511                                  TOTAL IN =   26.66790    

                   STREAM ACCUMULATION =   804.5220                       STREAM ACCUMULATION =   17.34386    
                        STREAM OUTFLOW =   2013.998                            STREAM OUTFLOW =   9.324042    
                          STREAM TO GW =   0.000000                              STREAM TO GW =   0.000000    
                CONSTANT CONCENTRATION =   0.000000                    CONSTANT CONCENTRATION =   0.000000    
                           EVAPORATION =   0.000000                               EVAPORATION =   0.000000    
                             MASS LOSS =   0.000000                                 MASS LOSS =   0.000000    
                                         -------------------                                    --------------
                             TOTAL OUT =   2818.520                                 TOTAL OUT =   26.66791    

                        NET (IN - OUT) = -0.9277344E-02                        NET (IN - OUT) = -0.3814697E-05
                 DISCREPANCY (PERCENT) = -0.3291571E-03                 DISCREPANCY (PERCENT) = -0.1430445E-04
                                              FLOW ERR (QIN-QOUT-DV) = -0.9536743E-06 [L3/T]




 >>>>>>>>>>>>>>>>>>>>>>>>>>>>>>>>>>>>>>>>>>>>>>>>>>>>>>>FOR COMPONENT NO. 01<<<<<<<<<<<<<<<<<<<<<<<<<<<<<<<<<<<<<<<<<<<<<<<<<<<<<<<


                                            -------------------------------------------
                                                      TRANSPORT STEP NO.   46
                                            -------------------------------------------

 TOTAL ELAPSED TIME SINCE BEGINNING OF SIMULATION =   38880.00    D   
 .....................................................................

                     CUMULATIVE MASS BUDGETS AT END OF TRANSPORT STEP   46, TIME STEP    1, STRESS PERIOD    2
                     -----------------------------------------------------------------------------------------

                                                             IN                           OUT
                                                      ----------------             ----------------
                               CONSTANT CONCENTRATION:    0.000000                    0.000000    
                                        CONSTANT HEAD:    485.3096                   -269.5221    
                                               STREAM:    0.000000                   -215.7924    
                               MASS STOR (FLOW MODEL):   0.5161150E-02              -0.6986623E-07
                                MASS STORAGE (SOLUTE):    0.000000                    0.000000    
                            ---------------------------------------------------------------------------
                                              [TOTAL]:    485.3148     KG            -485.3145     KG  

                                                          NET (IN - OUT):   0.3051758E-03
                                                   DISCREPANCY (PERCENT):   0.6288205E-04
     2 CALLS TO GCG PACKAGE FOR TRANSPORT TIME STEP    47 IN FLOW TIME STEP     1 STRESS PERIOD     2
      2 TOTAL ITERATIONS
  MAXIMUM CONCENTRATION CHANGES FOR EACH ITERATION:
  MAX. CHANGE LAYER,ROW,COL MAX. CHANGE LAYER,ROW,COL MAX. CHANGE LAYER,ROW,COL MAX. CHANGE LAYER,ROW,COL MAX. CHANGE LAYER,ROW,COL
 ------------------------------------------------------------------------------------------------------------------------------------
    0.000     (  1,  1,  1)   0.000     (  1,  1,  1)


                     STREAM MASS BUDGETS AT END OF TRANSPORT STEP   47, TIME STEP    1, STRESS PERIOD    2 FOR COMPONENT   1
                     -------------------------------------------------------------------------------------------------------

                                         CUMULATIVE MASS [M]                                     MASS FOR THIS TIME STEP [M]
                                         -------------------                                    --------------
                      STREAM DEPLETION =   7.588996                          STREAM DEPLETION =  0.1785745E-01
                      INFLOW TO STREAM =   2620.797                          INFLOW TO STREAM =   25.65000    
                          GW TO STREAM =   216.7914                              GW TO STREAM =  0.9990391    
                         PRECIPITATION =   0.000000                             PRECIPITATION =   0.000000    
                                RUNOFF =   0.000000                                    RUNOFF =   0.000000    
                CONSTANT CONCENTRATION =   0.000000                    CONSTANT CONCENTRATION =   0.000000    
                             MASS GAIN =   0.000000                                 MASS GAIN =   0.000000    
                                         -------------------                                    --------------
                              TOTAL IN =   2845.177                                  TOTAL IN =   26.66689    

                   STREAM ACCUMULATION =   821.8648                       STREAM ACCUMULATION =   17.34284    
                        STREAM OUTFLOW =   2023.322                            STREAM OUTFLOW =   9.324044    
                          STREAM TO GW =   0.000000                              STREAM TO GW =   0.000000    
                CONSTANT CONCENTRATION =   0.000000                    CONSTANT CONCENTRATION =   0.000000    
                           EVAPORATION =   0.000000                               EVAPORATION =   0.000000    
                             MASS LOSS =   0.000000                                 MASS LOSS =   0.000000    
                                         -------------------                                    --------------
                             TOTAL OUT =   2845.187                                 TOTAL OUT =   26.66689    

                        NET (IN - OUT) = -0.9521484E-02                        NET (IN - OUT) =  0.5722046E-05
                 DISCREPANCY (PERCENT) = -0.3346529E-03                 DISCREPANCY (PERCENT) =  0.2145749E-04
                                              FLOW ERR (QIN-QOUT-DV) = -0.9536743E-06 [L3/T]




 >>>>>>>>>>>>>>>>>>>>>>>>>>>>>>>>>>>>>>>>>>>>>>>>>>>>>>>FOR COMPONENT NO. 01<<<<<<<<<<<<<<<<<<<<<<<<<<<<<<<<<<<<<<<<<<<<<<<<<<<<<<<


                                            -------------------------------------------
                                                      TRANSPORT STEP NO.   47
                                            -------------------------------------------

 TOTAL ELAPSED TIME SINCE BEGINNING OF SIMULATION =   39060.00    D   
 .....................................................................

                     CUMULATIVE MASS BUDGETS AT END OF TRANSPORT STEP   47, TIME STEP    1, STRESS PERIOD    2
                     -----------------------------------------------------------------------------------------

                                                             IN                           OUT
                                                      ----------------             ----------------
                               CONSTANT CONCENTRATION:    0.000000                    0.000000    
                                        CONSTANT HEAD:    487.5564                   -270.7699    
                                               STREAM:    0.000000                   -216.7914    
                               MASS STOR (FLOW MODEL):   0.5161176E-02              -0.6986623E-07
                                MASS STORAGE (SOLUTE):    0.000000                    0.000000    
                            ---------------------------------------------------------------------------
                                              [TOTAL]:    487.5616     KG            -487.5613     KG  

                                                          NET (IN - OUT):   0.3051758E-03
                                                   DISCREPANCY (PERCENT):   0.6259227E-04
     2 CALLS TO GCG PACKAGE FOR TRANSPORT TIME STEP    48 IN FLOW TIME STEP     1 STRESS PERIOD     2
      2 TOTAL ITERATIONS
  MAXIMUM CONCENTRATION CHANGES FOR EACH ITERATION:
  MAX. CHANGE LAYER,ROW,COL MAX. CHANGE LAYER,ROW,COL MAX. CHANGE LAYER,ROW,COL MAX. CHANGE LAYER,ROW,COL MAX. CHANGE LAYER,ROW,COL
 ------------------------------------------------------------------------------------------------------------------------------------
    0.000     (  1,  1,  1)   0.000     (  1,  1,  1)


                     STREAM MASS BUDGETS AT END OF TRANSPORT STEP   48, TIME STEP    1, STRESS PERIOD    2 FOR COMPONENT   1
                     -------------------------------------------------------------------------------------------------------

                                         CUMULATIVE MASS [M]                                     MASS FOR THIS TIME STEP [M]
                                         -------------------                                    --------------
                      STREAM DEPLETION =   7.605893                          STREAM DEPLETION =  0.1689638E-01
                      INFLOW TO STREAM =   2646.447                          INFLOW TO STREAM =   25.65000    
                          GW TO STREAM =   217.7905                              GW TO STREAM =  0.9990391    
                         PRECIPITATION =   0.000000                             PRECIPITATION =   0.000000    
                                RUNOFF =   0.000000                                    RUNOFF =   0.000000    
                CONSTANT CONCENTRATION =   0.000000                    CONSTANT CONCENTRATION =   0.000000    
                             MASS GAIN =   0.000000                                 MASS GAIN =   0.000000    
                                         -------------------                                    --------------
                              TOTAL IN =   2871.843                                  TOTAL IN =   26.66594    

                   STREAM ACCUMULATION =   839.2067                       STREAM ACCUMULATION =   17.34188    
                        STREAM OUTFLOW =   2032.646                            STREAM OUTFLOW =   9.324046    
                          STREAM TO GW =   0.000000                              STREAM TO GW =   0.000000    
                CONSTANT CONCENTRATION =   0.000000                    CONSTANT CONCENTRATION =   0.000000    
                           EVAPORATION =   0.000000                               EVAPORATION =   0.000000    
                             MASS LOSS =   0.000000                                 MASS LOSS =   0.000000    
                                         -------------------                                    --------------
                             TOTAL OUT =   2871.853                                 TOTAL OUT =   26.66593    

                        NET (IN - OUT) = -0.9765625E-02                        NET (IN - OUT) =  0.7629395E-05
                 DISCREPANCY (PERCENT) = -0.3400467E-03                 DISCREPANCY (PERCENT) =  0.2861102E-04
                                              FLOW ERR (QIN-QOUT-DV) = -0.9536743E-06 [L3/T]




 >>>>>>>>>>>>>>>>>>>>>>>>>>>>>>>>>>>>>>>>>>>>>>>>>>>>>>>FOR COMPONENT NO. 01<<<<<<<<<<<<<<<<<<<<<<<<<<<<<<<<<<<<<<<<<<<<<<<<<<<<<<<


                                            -------------------------------------------
                                                      TRANSPORT STEP NO.   48
                                            -------------------------------------------

 TOTAL ELAPSED TIME SINCE BEGINNING OF SIMULATION =   39240.00    D   
 .....................................................................

                     CUMULATIVE MASS BUDGETS AT END OF TRANSPORT STEP   48, TIME STEP    1, STRESS PERIOD    2
                     -----------------------------------------------------------------------------------------

                                                             IN                           OUT
                                                      ----------------             ----------------
                               CONSTANT CONCENTRATION:    0.000000                    0.000000    
                                        CONSTANT HEAD:    489.8033                   -272.0176    
                                               STREAM:    0.000000                   -217.7905    
                               MASS STOR (FLOW MODEL):   0.5161202E-02              -0.6986623E-07
                                MASS STORAGE (SOLUTE):    0.000000                    0.000000    
                            ---------------------------------------------------------------------------
                                              [TOTAL]:    489.8084     KG            -489.8081     KG  

                                                          NET (IN - OUT):   0.3051758E-03
                                                   DISCREPANCY (PERCENT):   0.6230515E-04
     2 CALLS TO GCG PACKAGE FOR TRANSPORT TIME STEP    49 IN FLOW TIME STEP     1 STRESS PERIOD     2
      2 TOTAL ITERATIONS
  MAXIMUM CONCENTRATION CHANGES FOR EACH ITERATION:
  MAX. CHANGE LAYER,ROW,COL MAX. CHANGE LAYER,ROW,COL MAX. CHANGE LAYER,ROW,COL MAX. CHANGE LAYER,ROW,COL MAX. CHANGE LAYER,ROW,COL
 ------------------------------------------------------------------------------------------------------------------------------------
    0.000     (  1,  1,  1)   0.000     (  1,  1,  1)


                     STREAM MASS BUDGETS AT END OF TRANSPORT STEP   49, TIME STEP    1, STRESS PERIOD    2 FOR COMPONENT   1
                     -------------------------------------------------------------------------------------------------------

                                         CUMULATIVE MASS [M]                                     MASS FOR THIS TIME STEP [M]
                                         -------------------                                    --------------
                      STREAM DEPLETION =   7.621888                          STREAM DEPLETION =  0.1599498E-01
                      INFLOW TO STREAM =   2672.097                          INFLOW TO STREAM =   25.65000    
                          GW TO STREAM =   218.7895                              GW TO STREAM =  0.9990391    
                         PRECIPITATION =   0.000000                             PRECIPITATION =   0.000000    
                                RUNOFF =   0.000000                                    RUNOFF =   0.000000    
                CONSTANT CONCENTRATION =   0.000000                    CONSTANT CONCENTRATION =   0.000000    
                             MASS GAIN =   0.000000                                 MASS GAIN =   0.000000    
                                         -------------------                                    --------------
                              TOTAL IN =   2898.508                                  TOTAL IN =   26.66503    

                   STREAM ACCUMULATION =   856.5477                       STREAM ACCUMULATION =   17.34098    
                        STREAM OUTFLOW =   2041.970                            STREAM OUTFLOW =   9.324051    
                          STREAM TO GW =   0.000000                              STREAM TO GW =   0.000000    
                CONSTANT CONCENTRATION =   0.000000                    CONSTANT CONCENTRATION =   0.000000    
                           EVAPORATION =   0.000000                               EVAPORATION =   0.000000    
                             MASS LOSS =   0.000000                                 MASS LOSS =   0.000000    
                                         -------------------                                    --------------
                             TOTAL OUT =   2898.518                                 TOTAL OUT =   26.66503    

                        NET (IN - OUT) = -0.9765625E-02                        NET (IN - OUT) =  0.5722046E-05
                 DISCREPANCY (PERCENT) = -0.3369184E-03                 DISCREPANCY (PERCENT) =  0.2145899E-04
                                              FLOW ERR (QIN-QOUT-DV) = -0.9536743E-06 [L3/T]




 >>>>>>>>>>>>>>>>>>>>>>>>>>>>>>>>>>>>>>>>>>>>>>>>>>>>>>>FOR COMPONENT NO. 01<<<<<<<<<<<<<<<<<<<<<<<<<<<<<<<<<<<<<<<<<<<<<<<<<<<<<<<


                                            -------------------------------------------
                                                      TRANSPORT STEP NO.   49
                                            -------------------------------------------

 TOTAL ELAPSED TIME SINCE BEGINNING OF SIMULATION =   39420.00    D   
 .....................................................................

                     CUMULATIVE MASS BUDGETS AT END OF TRANSPORT STEP   49, TIME STEP    1, STRESS PERIOD    2
                     -----------------------------------------------------------------------------------------

                                                             IN                           OUT
                                                      ----------------             ----------------
                               CONSTANT CONCENTRATION:    0.000000                    0.000000    
                                        CONSTANT HEAD:    492.0501                   -273.2654    
                                               STREAM:    0.000000                   -218.7895    
                               MASS STOR (FLOW MODEL):   0.5161227E-02              -0.6986623E-07
                                MASS STORAGE (SOLUTE):    0.000000                    0.000000    
                            ---------------------------------------------------------------------------
                                              [TOTAL]:    492.0552     KG            -492.0549     KG  

                                                          NET (IN - OUT):   0.3356934E-03
                                                   DISCREPANCY (PERCENT):   0.6822273E-04
     2 CALLS TO GCG PACKAGE FOR TRANSPORT TIME STEP    50 IN FLOW TIME STEP     1 STRESS PERIOD     2
      2 TOTAL ITERATIONS
  MAXIMUM CONCENTRATION CHANGES FOR EACH ITERATION:
  MAX. CHANGE LAYER,ROW,COL MAX. CHANGE LAYER,ROW,COL MAX. CHANGE LAYER,ROW,COL MAX. CHANGE LAYER,ROW,COL MAX. CHANGE LAYER,ROW,COL
 ------------------------------------------------------------------------------------------------------------------------------------
    0.000     (  1,  1,  1)   0.000     (  1,  1,  1)


                     STREAM MASS BUDGETS AT END OF TRANSPORT STEP   50, TIME STEP    1, STRESS PERIOD    2 FOR COMPONENT   1
                     -------------------------------------------------------------------------------------------------------

                                         CUMULATIVE MASS [M]                                     MASS FOR THIS TIME STEP [M]
                                         -------------------                                    --------------
                      STREAM DEPLETION =   7.637064                          STREAM DEPLETION =  0.1517693E-01
                      INFLOW TO STREAM =   2697.747                          INFLOW TO STREAM =   25.65000    
                          GW TO STREAM =   219.7885                              GW TO STREAM =  0.9990391    
                         PRECIPITATION =   0.000000                             PRECIPITATION =   0.000000    
                                RUNOFF =   0.000000                                    RUNOFF =   0.000000    
                CONSTANT CONCENTRATION =   0.000000                    CONSTANT CONCENTRATION =   0.000000    
                             MASS GAIN =   0.000000                                 MASS GAIN =   0.000000    
                                         -------------------                                    --------------
                              TOTAL IN =   2925.172                                  TOTAL IN =   26.66422    

                   STREAM ACCUMULATION =   873.8878                       STREAM ACCUMULATION =   17.34016    
                        STREAM OUTFLOW =   2051.294                            STREAM OUTFLOW =   9.324059    
                          STREAM TO GW =   0.000000                              STREAM TO GW =   0.000000    
                CONSTANT CONCENTRATION =   0.000000                    CONSTANT CONCENTRATION =   0.000000    
                           EVAPORATION =   0.000000                               EVAPORATION =   0.000000    
                             MASS LOSS =   0.000000                                 MASS LOSS =   0.000000    
                                         -------------------                                    --------------
                             TOTAL OUT =   2925.182                                 TOTAL OUT =   26.66422    

                        NET (IN - OUT) = -0.9765625E-02                        NET (IN - OUT) = -0.3814697E-05
                 DISCREPANCY (PERCENT) = -0.3338473E-03                 DISCREPANCY (PERCENT) = -0.1430643E-04
                                              FLOW ERR (QIN-QOUT-DV) = -0.9536743E-06 [L3/T]




 >>>>>>>>>>>>>>>>>>>>>>>>>>>>>>>>>>>>>>>>>>>>>>>>>>>>>>>FOR COMPONENT NO. 01<<<<<<<<<<<<<<<<<<<<<<<<<<<<<<<<<<<<<<<<<<<<<<<<<<<<<<<


                                            -------------------------------------------
                                                      TRANSPORT STEP NO.   50
                                            -------------------------------------------

 TOTAL ELAPSED TIME SINCE BEGINNING OF SIMULATION =   39600.00    D   
 .....................................................................

                     CUMULATIVE MASS BUDGETS AT END OF TRANSPORT STEP   50, TIME STEP    1, STRESS PERIOD    2
                     -----------------------------------------------------------------------------------------

                                                             IN                           OUT
                                                      ----------------             ----------------
                               CONSTANT CONCENTRATION:    0.000000                    0.000000    
                                        CONSTANT HEAD:    494.2969                   -274.5132    
                                               STREAM:    0.000000                   -219.7885    
                               MASS STOR (FLOW MODEL):   0.5161253E-02              -0.6986623E-07
                                MASS STORAGE (SOLUTE):    0.000000                    0.000000    
                            ---------------------------------------------------------------------------
                                              [TOTAL]:    494.3021     KG            -494.3017     KG  

                                                          NET (IN - OUT):   0.3662109E-03
                                                   DISCREPANCY (PERCENT):   0.7408649E-04
     2 CALLS TO GCG PACKAGE FOR TRANSPORT TIME STEP    51 IN FLOW TIME STEP     1 STRESS PERIOD     2
      2 TOTAL ITERATIONS
  MAXIMUM CONCENTRATION CHANGES FOR EACH ITERATION:
  MAX. CHANGE LAYER,ROW,COL MAX. CHANGE LAYER,ROW,COL MAX. CHANGE LAYER,ROW,COL MAX. CHANGE LAYER,ROW,COL MAX. CHANGE LAYER,ROW,COL
 ------------------------------------------------------------------------------------------------------------------------------------
    0.000     (  1,  1,  1)   0.000     (  1,  1,  1)


                     STREAM MASS BUDGETS AT END OF TRANSPORT STEP   51, TIME STEP    1, STRESS PERIOD    2 FOR COMPONENT   1
                     -------------------------------------------------------------------------------------------------------

                                         CUMULATIVE MASS [M]                                     MASS FOR THIS TIME STEP [M]
                                         -------------------                                    --------------
                      STREAM DEPLETION =   7.651463                          STREAM DEPLETION =  0.1439833E-01
                      INFLOW TO STREAM =   2723.397                          INFLOW TO STREAM =   25.65000    
                          GW TO STREAM =   220.7876                              GW TO STREAM =  0.9990391    
                         PRECIPITATION =   0.000000                             PRECIPITATION =   0.000000    
                                RUNOFF =   0.000000                                    RUNOFF =   0.000000    
                CONSTANT CONCENTRATION =   0.000000                    CONSTANT CONCENTRATION =   0.000000    
                             MASS GAIN =   0.000000                                 MASS GAIN =   0.000000    
                                         -------------------                                    --------------
                              TOTAL IN =   2951.836                                  TOTAL IN =   26.66344    

                   STREAM ACCUMULATION =   891.2272                       STREAM ACCUMULATION =   17.33938    
                        STREAM OUTFLOW =   2060.618                            STREAM OUTFLOW =   9.324073    
                          STREAM TO GW =   0.000000                              STREAM TO GW =   0.000000    
                CONSTANT CONCENTRATION =   0.000000                    CONSTANT CONCENTRATION =   0.000000    
                           EVAPORATION =   0.000000                               EVAPORATION =   0.000000    
                             MASS LOSS =   0.000000                                 MASS LOSS =   0.000000    
                                         -------------------                                    --------------
                             TOTAL OUT =   2951.846                                 TOTAL OUT =   26.66345    

                        NET (IN - OUT) = -0.1000977E-01                        NET (IN - OUT) = -0.1144409E-04
                 DISCREPANCY (PERCENT) = -0.3391025E-03                 DISCREPANCY (PERCENT) = -0.4292053E-04
                                              FLOW ERR (QIN-QOUT-DV) = -0.9536743E-06 [L3/T]




 >>>>>>>>>>>>>>>>>>>>>>>>>>>>>>>>>>>>>>>>>>>>>>>>>>>>>>>FOR COMPONENT NO. 01<<<<<<<<<<<<<<<<<<<<<<<<<<<<<<<<<<<<<<<<<<<<<<<<<<<<<<<


                                            -------------------------------------------
                                                      TRANSPORT STEP NO.   51
                                            -------------------------------------------

 TOTAL ELAPSED TIME SINCE BEGINNING OF SIMULATION =   39780.00    D   
 .....................................................................

                     CUMULATIVE MASS BUDGETS AT END OF TRANSPORT STEP   51, TIME STEP    1, STRESS PERIOD    2
                     -----------------------------------------------------------------------------------------

                                                             IN                           OUT
                                                      ----------------             ----------------
                               CONSTANT CONCENTRATION:    0.000000                    0.000000    
                                        CONSTANT HEAD:    496.5437                   -275.7610    
                                               STREAM:    0.000000                   -220.7876    
                               MASS STOR (FLOW MODEL):   0.5161278E-02              -0.6986623E-07
                                MASS STORAGE (SOLUTE):    0.000000                    0.000000    
                            ---------------------------------------------------------------------------
                                              [TOTAL]:    496.5489     KG            -496.5485     KG  

                                                          NET (IN - OUT):   0.3662109E-03
                                                   DISCREPANCY (PERCENT):   0.7375126E-04
     2 CALLS TO GCG PACKAGE FOR TRANSPORT TIME STEP    52 IN FLOW TIME STEP     1 STRESS PERIOD     2
      2 TOTAL ITERATIONS
  MAXIMUM CONCENTRATION CHANGES FOR EACH ITERATION:
  MAX. CHANGE LAYER,ROW,COL MAX. CHANGE LAYER,ROW,COL MAX. CHANGE LAYER,ROW,COL MAX. CHANGE LAYER,ROW,COL MAX. CHANGE LAYER,ROW,COL
 ------------------------------------------------------------------------------------------------------------------------------------
    0.000     (  1,  1,  1)   0.000     (  1,  1,  1)


                     STREAM MASS BUDGETS AT END OF TRANSPORT STEP   52, TIME STEP    1, STRESS PERIOD    2 FOR COMPONENT   1
                     -------------------------------------------------------------------------------------------------------

                                         CUMULATIVE MASS [M]                                     MASS FOR THIS TIME STEP [M]
                                         -------------------                                    --------------
                      STREAM DEPLETION =   7.665118                          STREAM DEPLETION =  0.1365533E-01
                      INFLOW TO STREAM =   2749.047                          INFLOW TO STREAM =   25.65000    
                          GW TO STREAM =   221.7866                              GW TO STREAM =  0.9990391    
                         PRECIPITATION =   0.000000                             PRECIPITATION =   0.000000    
                                RUNOFF =   0.000000                                    RUNOFF =   0.000000    
                CONSTANT CONCENTRATION =   0.000000                    CONSTANT CONCENTRATION =   0.000000    
                             MASS GAIN =   0.000000                                 MASS GAIN =   0.000000    
                                         -------------------                                    --------------
                              TOTAL IN =   2978.498                                  TOTAL IN =   26.66269    

                   STREAM ACCUMULATION =   908.5658                       STREAM ACCUMULATION =   17.33860    
                        STREAM OUTFLOW =   2069.942                            STREAM OUTFLOW =   9.324096    
                          STREAM TO GW =   0.000000                              STREAM TO GW =   0.000000    
                CONSTANT CONCENTRATION =   0.000000                    CONSTANT CONCENTRATION =   0.000000    
                           EVAPORATION =   0.000000                               EVAPORATION =   0.000000    
                             MASS LOSS =   0.000000                                 MASS LOSS =   0.000000    
                                         -------------------                                    --------------
                             TOTAL OUT =   2978.508                                 TOTAL OUT =   26.66269    

                        NET (IN - OUT) = -0.1000977E-01                        NET (IN - OUT) =   0.000000    
                 DISCREPANCY (PERCENT) = -0.3360670E-03                 DISCREPANCY (PERCENT) =   0.000000    
                                              FLOW ERR (QIN-QOUT-DV) = -0.9536743E-06 [L3/T]




 >>>>>>>>>>>>>>>>>>>>>>>>>>>>>>>>>>>>>>>>>>>>>>>>>>>>>>>FOR COMPONENT NO. 01<<<<<<<<<<<<<<<<<<<<<<<<<<<<<<<<<<<<<<<<<<<<<<<<<<<<<<<


                                            -------------------------------------------
                                                      TRANSPORT STEP NO.   52
                                            -------------------------------------------

 TOTAL ELAPSED TIME SINCE BEGINNING OF SIMULATION =   39960.00    D   
 .....................................................................

                     CUMULATIVE MASS BUDGETS AT END OF TRANSPORT STEP   52, TIME STEP    1, STRESS PERIOD    2
                     -----------------------------------------------------------------------------------------

                                                             IN                           OUT
                                                      ----------------             ----------------
                               CONSTANT CONCENTRATION:    0.000000                    0.000000    
                                        CONSTANT HEAD:    498.7906                   -277.0087    
                                               STREAM:    0.000000                   -221.7866    
                               MASS STOR (FLOW MODEL):   0.5161304E-02              -0.6986623E-07
                                MASS STORAGE (SOLUTE):    0.000000                    0.000000    
                            ---------------------------------------------------------------------------
                                              [TOTAL]:    498.7957     KG            -498.7953     KG  

                                                          NET (IN - OUT):   0.3662109E-03
                                                   DISCREPANCY (PERCENT):   0.7341905E-04
     2 CALLS TO GCG PACKAGE FOR TRANSPORT TIME STEP    53 IN FLOW TIME STEP     1 STRESS PERIOD     2
      2 TOTAL ITERATIONS
  MAXIMUM CONCENTRATION CHANGES FOR EACH ITERATION:
  MAX. CHANGE LAYER,ROW,COL MAX. CHANGE LAYER,ROW,COL MAX. CHANGE LAYER,ROW,COL MAX. CHANGE LAYER,ROW,COL MAX. CHANGE LAYER,ROW,COL
 ------------------------------------------------------------------------------------------------------------------------------------
    0.000     (  1,  1,  1)   0.000     (  1,  1,  1)


                     STREAM MASS BUDGETS AT END OF TRANSPORT STEP   53, TIME STEP    1, STRESS PERIOD    2 FOR COMPONENT   1
                     -------------------------------------------------------------------------------------------------------

                                         CUMULATIVE MASS [M]                                     MASS FOR THIS TIME STEP [M]
                                         -------------------                                    --------------
                      STREAM DEPLETION =   7.678063                          STREAM DEPLETION =  0.1294573E-01
                      INFLOW TO STREAM =   2774.697                          INFLOW TO STREAM =   25.65000    
                          GW TO STREAM =   222.7856                              GW TO STREAM =  0.9990391    
                         PRECIPITATION =   0.000000                             PRECIPITATION =   0.000000    
                                RUNOFF =   0.000000                                    RUNOFF =   0.000000    
                CONSTANT CONCENTRATION =   0.000000                    CONSTANT CONCENTRATION =   0.000000    
                             MASS GAIN =   0.000000                                 MASS GAIN =   0.000000    
                                         -------------------                                    --------------
                              TOTAL IN =   3005.160                                  TOTAL IN =   26.66198    

                   STREAM ACCUMULATION =   925.9036                       STREAM ACCUMULATION =   17.33785    
                        STREAM OUTFLOW =   2079.267                            STREAM OUTFLOW =   9.324133    
                          STREAM TO GW =   0.000000                              STREAM TO GW =   0.000000    
                CONSTANT CONCENTRATION =   0.000000                    CONSTANT CONCENTRATION =   0.000000    
                           EVAPORATION =   0.000000                               EVAPORATION =   0.000000    
                             MASS LOSS =   0.000000                                 MASS LOSS =   0.000000    
                                         -------------------                                    --------------
                             TOTAL OUT =   3005.170                                 TOTAL OUT =   26.66198    

                        NET (IN - OUT) = -0.1000977E-01                        NET (IN - OUT) =   0.000000    
                 DISCREPANCY (PERCENT) = -0.3330854E-03                 DISCREPANCY (PERCENT) =   0.000000    
                                              FLOW ERR (QIN-QOUT-DV) = -0.9536743E-06 [L3/T]




 >>>>>>>>>>>>>>>>>>>>>>>>>>>>>>>>>>>>>>>>>>>>>>>>>>>>>>>FOR COMPONENT NO. 01<<<<<<<<<<<<<<<<<<<<<<<<<<<<<<<<<<<<<<<<<<<<<<<<<<<<<<<


                                            -------------------------------------------
                                                      TRANSPORT STEP NO.   53
                                            -------------------------------------------

 TOTAL ELAPSED TIME SINCE BEGINNING OF SIMULATION =   40140.00    D   
 .....................................................................

                     CUMULATIVE MASS BUDGETS AT END OF TRANSPORT STEP   53, TIME STEP    1, STRESS PERIOD    2
                     -----------------------------------------------------------------------------------------

                                                             IN                           OUT
                                                      ----------------             ----------------
                               CONSTANT CONCENTRATION:    0.000000                    0.000000    
                                        CONSTANT HEAD:    501.0374                   -278.2565    
                                               STREAM:    0.000000                   -222.7856    
                               MASS STOR (FLOW MODEL):   0.5161330E-02              -0.6986623E-07
                                MASS STORAGE (SOLUTE):    0.000000                    0.000000    
                            ---------------------------------------------------------------------------
                                              [TOTAL]:    501.0425     KG            -501.0421     KG  

                                                          NET (IN - OUT):   0.3967285E-03
                                                   DISCREPANCY (PERCENT):   0.7918063E-04
     2 CALLS TO GCG PACKAGE FOR TRANSPORT TIME STEP    54 IN FLOW TIME STEP     1 STRESS PERIOD     2
      2 TOTAL ITERATIONS
  MAXIMUM CONCENTRATION CHANGES FOR EACH ITERATION:
  MAX. CHANGE LAYER,ROW,COL MAX. CHANGE LAYER,ROW,COL MAX. CHANGE LAYER,ROW,COL MAX. CHANGE LAYER,ROW,COL MAX. CHANGE LAYER,ROW,COL
 ------------------------------------------------------------------------------------------------------------------------------------
    0.000     (  1,  1,  1)   0.000     (  1,  1,  1)


                     STREAM MASS BUDGETS AT END OF TRANSPORT STEP   54, TIME STEP    1, STRESS PERIOD    2 FOR COMPONENT   1
                     -------------------------------------------------------------------------------------------------------

                                         CUMULATIVE MASS [M]                                     MASS FOR THIS TIME STEP [M]
                                         -------------------                                    --------------
                      STREAM DEPLETION =   7.690332                          STREAM DEPLETION =  0.1226875E-01
                      INFLOW TO STREAM =   2800.346                          INFLOW TO STREAM =   25.65000    
                          GW TO STREAM =   223.7847                              GW TO STREAM =  0.9990391    
                         PRECIPITATION =   0.000000                             PRECIPITATION =   0.000000    
                                RUNOFF =   0.000000                                    RUNOFF =   0.000000    
                CONSTANT CONCENTRATION =   0.000000                    CONSTANT CONCENTRATION =   0.000000    
                             MASS GAIN =   0.000000                                 MASS GAIN =   0.000000    
                                         -------------------                                    --------------
                              TOTAL IN =   3031.822                                  TOTAL IN =   26.66131    

                   STREAM ACCUMULATION =   943.2407                       STREAM ACCUMULATION =   17.33712    
                        STREAM OUTFLOW =   2088.591                            STREAM OUTFLOW =   9.324193    
                          STREAM TO GW =   0.000000                              STREAM TO GW =   0.000000    
                CONSTANT CONCENTRATION =   0.000000                    CONSTANT CONCENTRATION =   0.000000    
                           EVAPORATION =   0.000000                               EVAPORATION =   0.000000    
                             MASS LOSS =   0.000000                                 MASS LOSS =   0.000000    
                                         -------------------                                    --------------
                             TOTAL OUT =   3031.832                                 TOTAL OUT =   26.66132    

                        NET (IN - OUT) = -0.1000977E-01                        NET (IN - OUT) = -0.9536743E-05
                 DISCREPANCY (PERCENT) = -0.3301563E-03                 DISCREPANCY (PERCENT) = -0.3576997E-04
                                              FLOW ERR (QIN-QOUT-DV) = -0.9536743E-06 [L3/T]




 >>>>>>>>>>>>>>>>>>>>>>>>>>>>>>>>>>>>>>>>>>>>>>>>>>>>>>>FOR COMPONENT NO. 01<<<<<<<<<<<<<<<<<<<<<<<<<<<<<<<<<<<<<<<<<<<<<<<<<<<<<<<


                                            -------------------------------------------
                                                      TRANSPORT STEP NO.   54
                                            -------------------------------------------

 TOTAL ELAPSED TIME SINCE BEGINNING OF SIMULATION =   40320.00    D   
 .....................................................................

                     CUMULATIVE MASS BUDGETS AT END OF TRANSPORT STEP   54, TIME STEP    1, STRESS PERIOD    2
                     -----------------------------------------------------------------------------------------

                                                             IN                           OUT
                                                      ----------------             ----------------
                               CONSTANT CONCENTRATION:    0.000000                    0.000000    
                                        CONSTANT HEAD:    503.2842                   -279.5043    
                                               STREAM:    0.000000                   -223.7847    
                               MASS STOR (FLOW MODEL):   0.5161355E-02              -0.6986623E-07
                                MASS STORAGE (SOLUTE):    0.000000                    0.000000    
                            ---------------------------------------------------------------------------
                                              [TOTAL]:    503.2894     KG            -503.2889     KG  

                                                          NET (IN - OUT):   0.4272461E-03
                                                   DISCREPANCY (PERCENT):   0.8489078E-04
     2 CALLS TO GCG PACKAGE FOR TRANSPORT TIME STEP    55 IN FLOW TIME STEP     1 STRESS PERIOD     2
      2 TOTAL ITERATIONS
  MAXIMUM CONCENTRATION CHANGES FOR EACH ITERATION:
  MAX. CHANGE LAYER,ROW,COL MAX. CHANGE LAYER,ROW,COL MAX. CHANGE LAYER,ROW,COL MAX. CHANGE LAYER,ROW,COL MAX. CHANGE LAYER,ROW,COL
 ------------------------------------------------------------------------------------------------------------------------------------
    0.000     (  1,  1,  1)   0.000     (  1,  1,  1)


                     STREAM MASS BUDGETS AT END OF TRANSPORT STEP   55, TIME STEP    1, STRESS PERIOD    2 FOR COMPONENT   1
                     -------------------------------------------------------------------------------------------------------

                                         CUMULATIVE MASS [M]                                     MASS FOR THIS TIME STEP [M]
                                         -------------------                                    --------------
                      STREAM DEPLETION =   7.701956                          STREAM DEPLETION =  0.1162405E-01
                      INFLOW TO STREAM =   2825.996                          INFLOW TO STREAM =   25.65000    
                          GW TO STREAM =   224.7837                              GW TO STREAM =  0.9990391    
                         PRECIPITATION =   0.000000                             PRECIPITATION =   0.000000    
                                RUNOFF =   0.000000                                    RUNOFF =   0.000000    
                CONSTANT CONCENTRATION =   0.000000                    CONSTANT CONCENTRATION =   0.000000    
                             MASS GAIN =   0.000000                                 MASS GAIN =   0.000000    
                                         -------------------                                    --------------
                              TOTAL IN =   3058.482                                  TOTAL IN =   26.66066    

                   STREAM ACCUMULATION =   960.5771                       STREAM ACCUMULATION =   17.33639    
                        STREAM OUTFLOW =   2097.915                            STREAM OUTFLOW =   9.324286    
                          STREAM TO GW =   0.000000                              STREAM TO GW =   0.000000    
                CONSTANT CONCENTRATION =   0.000000                    CONSTANT CONCENTRATION =   0.000000    
                           EVAPORATION =   0.000000                               EVAPORATION =   0.000000    
                             MASS LOSS =   0.000000                                 MASS LOSS =   0.000000    
                                         -------------------                                    --------------
                             TOTAL OUT =   3058.492                                 TOTAL OUT =   26.66068    

                        NET (IN - OUT) = -0.1025391E-01                        NET (IN - OUT) = -0.1335144E-04
                 DISCREPANCY (PERCENT) = -0.3352607E-03                 DISCREPANCY (PERCENT) = -0.5007917E-04
                                              FLOW ERR (QIN-QOUT-DV) = -0.9536743E-06 [L3/T]




 >>>>>>>>>>>>>>>>>>>>>>>>>>>>>>>>>>>>>>>>>>>>>>>>>>>>>>>FOR COMPONENT NO. 01<<<<<<<<<<<<<<<<<<<<<<<<<<<<<<<<<<<<<<<<<<<<<<<<<<<<<<<


                                            -------------------------------------------
                                                      TRANSPORT STEP NO.   55
                                            -------------------------------------------

 TOTAL ELAPSED TIME SINCE BEGINNING OF SIMULATION =   40500.00    D   
 .....................................................................

                     CUMULATIVE MASS BUDGETS AT END OF TRANSPORT STEP   55, TIME STEP    1, STRESS PERIOD    2
                     -----------------------------------------------------------------------------------------

                                                             IN                           OUT
                                                      ----------------             ----------------
                               CONSTANT CONCENTRATION:    0.000000                    0.000000    
                                        CONSTANT HEAD:    505.5310                   -280.7520    
                                               STREAM:    0.000000                   -224.7837    
                               MASS STOR (FLOW MODEL):   0.5161381E-02              -0.6986623E-07
                                MASS STORAGE (SOLUTE):    0.000000                    0.000000    
                            ---------------------------------------------------------------------------
                                              [TOTAL]:    505.5362     KG            -505.5358     KG  

                                                          NET (IN - OUT):   0.4272461E-03
                                                   DISCREPANCY (PERCENT):   0.8451349E-04
     2 CALLS TO GCG PACKAGE FOR TRANSPORT TIME STEP    56 IN FLOW TIME STEP     1 STRESS PERIOD     2
      2 TOTAL ITERATIONS
  MAXIMUM CONCENTRATION CHANGES FOR EACH ITERATION:
  MAX. CHANGE LAYER,ROW,COL MAX. CHANGE LAYER,ROW,COL MAX. CHANGE LAYER,ROW,COL MAX. CHANGE LAYER,ROW,COL MAX. CHANGE LAYER,ROW,COL
 ------------------------------------------------------------------------------------------------------------------------------------
    0.000     (  1,  1,  1)   0.000     (  1,  1,  1)


                     STREAM MASS BUDGETS AT END OF TRANSPORT STEP   56, TIME STEP    1, STRESS PERIOD    2 FOR COMPONENT   1
                     -------------------------------------------------------------------------------------------------------

                                         CUMULATIVE MASS [M]                                     MASS FOR THIS TIME STEP [M]
                                         -------------------                                    --------------
                      STREAM DEPLETION =   7.712965                          STREAM DEPLETION =  0.1100978E-01
                      INFLOW TO STREAM =   2851.646                          INFLOW TO STREAM =   25.65000    
                          GW TO STREAM =   225.7828                              GW TO STREAM =  0.9990391    
                         PRECIPITATION =   0.000000                             PRECIPITATION =   0.000000    
                                RUNOFF =   0.000000                                    RUNOFF =   0.000000    
                CONSTANT CONCENTRATION =   0.000000                    CONSTANT CONCENTRATION =   0.000000    
                             MASS GAIN =   0.000000                                 MASS GAIN =   0.000000    
                                         -------------------                                    --------------
                              TOTAL IN =   3085.142                                  TOTAL IN =   26.66005    

                   STREAM ACCUMULATION =   977.9127                       STREAM ACCUMULATION =   17.33562    
                        STREAM OUTFLOW =   2107.240                            STREAM OUTFLOW =   9.324430    
                          STREAM TO GW =   0.000000                              STREAM TO GW =   0.000000    
                CONSTANT CONCENTRATION =   0.000000                    CONSTANT CONCENTRATION =   0.000000    
                           EVAPORATION =   0.000000                               EVAPORATION =   0.000000    
                             MASS LOSS =   0.000000                                 MASS LOSS =   0.000000    
                                         -------------------                                    --------------
                             TOTAL OUT =   3085.152                                 TOTAL OUT =   26.66005    

                        NET (IN - OUT) = -0.1025391E-01                        NET (IN - OUT) = -0.1907349E-05
                 DISCREPANCY (PERCENT) = -0.3323636E-03                 DISCREPANCY (PERCENT) = -0.7154333E-05
                                              FLOW ERR (QIN-QOUT-DV) = -0.9536743E-06 [L3/T]




 >>>>>>>>>>>>>>>>>>>>>>>>>>>>>>>>>>>>>>>>>>>>>>>>>>>>>>>FOR COMPONENT NO. 01<<<<<<<<<<<<<<<<<<<<<<<<<<<<<<<<<<<<<<<<<<<<<<<<<<<<<<<


                                            -------------------------------------------
                                                      TRANSPORT STEP NO.   56
                                            -------------------------------------------

 TOTAL ELAPSED TIME SINCE BEGINNING OF SIMULATION =   40680.00    D   
 .....................................................................

                     CUMULATIVE MASS BUDGETS AT END OF TRANSPORT STEP   56, TIME STEP    1, STRESS PERIOD    2
                     -----------------------------------------------------------------------------------------

                                                             IN                           OUT
                                                      ----------------             ----------------
                               CONSTANT CONCENTRATION:    0.000000                    0.000000    
                                        CONSTANT HEAD:    507.7779                   -281.9998    
                                               STREAM:    0.000000                   -225.7828    
                               MASS STOR (FLOW MODEL):   0.5161406E-02              -0.6986623E-07
                                MASS STORAGE (SOLUTE):    0.000000                    0.000000    
                            ---------------------------------------------------------------------------
                                              [TOTAL]:    507.7830     KG            -507.7826     KG  

                                                          NET (IN - OUT):   0.4272461E-03
                                                   DISCREPANCY (PERCENT):   0.8413954E-04
     2 CALLS TO GCG PACKAGE FOR TRANSPORT TIME STEP    57 IN FLOW TIME STEP     1 STRESS PERIOD     2
      2 TOTAL ITERATIONS
  MAXIMUM CONCENTRATION CHANGES FOR EACH ITERATION:
  MAX. CHANGE LAYER,ROW,COL MAX. CHANGE LAYER,ROW,COL MAX. CHANGE LAYER,ROW,COL MAX. CHANGE LAYER,ROW,COL MAX. CHANGE LAYER,ROW,COL
 ------------------------------------------------------------------------------------------------------------------------------------
    0.000     (  1,  1,  1)   0.000     (  1,  1,  1)


                     STREAM MASS BUDGETS AT END OF TRANSPORT STEP   57, TIME STEP    1, STRESS PERIOD    2 FOR COMPONENT   1
                     -------------------------------------------------------------------------------------------------------

                                         CUMULATIVE MASS [M]                                     MASS FOR THIS TIME STEP [M]
                                         -------------------                                    --------------
                      STREAM DEPLETION =   7.723391                          STREAM DEPLETION =  0.1042493E-01
                      INFLOW TO STREAM =   2877.296                          INFLOW TO STREAM =   25.65000    
                          GW TO STREAM =   226.7818                              GW TO STREAM =  0.9990391    
                         PRECIPITATION =   0.000000                             PRECIPITATION =   0.000000    
                                RUNOFF =   0.000000                                    RUNOFF =   0.000000    
                CONSTANT CONCENTRATION =   0.000000                    CONSTANT CONCENTRATION =   0.000000    
                             MASS GAIN =   0.000000                                 MASS GAIN =   0.000000    
                                         -------------------                                    --------------
                              TOTAL IN =   3111.801                                  TOTAL IN =   26.65946    

                   STREAM ACCUMULATION =   995.2475                       STREAM ACCUMULATION =   17.33480    
                        STREAM OUTFLOW =   2116.564                            STREAM OUTFLOW =   9.324647    
                          STREAM TO GW =   0.000000                              STREAM TO GW =   0.000000    
                CONSTANT CONCENTRATION =   0.000000                    CONSTANT CONCENTRATION =   0.000000    
                           EVAPORATION =   0.000000                               EVAPORATION =   0.000000    
                             MASS LOSS =   0.000000                                 MASS LOSS =   0.000000    
                                         -------------------                                    --------------
                             TOTAL OUT =   3111.812                                 TOTAL OUT =   26.65945    

                        NET (IN - OUT) = -0.1049805E-01                        NET (IN - OUT) =  0.1716614E-04
                 DISCREPANCY (PERCENT) = -0.3373618E-03                 DISCREPANCY (PERCENT) =  0.6439043E-04
                                              FLOW ERR (QIN-QOUT-DV) = -0.9536743E-06 [L3/T]




 >>>>>>>>>>>>>>>>>>>>>>>>>>>>>>>>>>>>>>>>>>>>>>>>>>>>>>>FOR COMPONENT NO. 01<<<<<<<<<<<<<<<<<<<<<<<<<<<<<<<<<<<<<<<<<<<<<<<<<<<<<<<


                                            -------------------------------------------
                                                      TRANSPORT STEP NO.   57
                                            -------------------------------------------

 TOTAL ELAPSED TIME SINCE BEGINNING OF SIMULATION =   40860.00    D   
 .....................................................................

                     CUMULATIVE MASS BUDGETS AT END OF TRANSPORT STEP   57, TIME STEP    1, STRESS PERIOD    2
                     -----------------------------------------------------------------------------------------

                                                             IN                           OUT
                                                      ----------------             ----------------
                               CONSTANT CONCENTRATION:    0.000000                    0.000000    
                                        CONSTANT HEAD:    510.0247                   -283.2476    
                                               STREAM:    0.000000                   -226.7818    
                               MASS STOR (FLOW MODEL):   0.5161432E-02              -0.6986623E-07
                                MASS STORAGE (SOLUTE):    0.000000                    0.000000    
                            ---------------------------------------------------------------------------
                                              [TOTAL]:    510.0298     KG            -510.0294     KG  

                                                          NET (IN - OUT):   0.4577637E-03
                                                   DISCREPANCY (PERCENT):   0.8975237E-04
     2 CALLS TO GCG PACKAGE FOR TRANSPORT TIME STEP    58 IN FLOW TIME STEP     1 STRESS PERIOD     2
      2 TOTAL ITERATIONS
  MAXIMUM CONCENTRATION CHANGES FOR EACH ITERATION:
  MAX. CHANGE LAYER,ROW,COL MAX. CHANGE LAYER,ROW,COL MAX. CHANGE LAYER,ROW,COL MAX. CHANGE LAYER,ROW,COL MAX. CHANGE LAYER,ROW,COL
 ------------------------------------------------------------------------------------------------------------------------------------
    0.000     (  1,  1,  1)   0.000     (  1,  1,  1)


                     STREAM MASS BUDGETS AT END OF TRANSPORT STEP   58, TIME STEP    1, STRESS PERIOD    2 FOR COMPONENT   1
                     -------------------------------------------------------------------------------------------------------

                                         CUMULATIVE MASS [M]                                     MASS FOR THIS TIME STEP [M]
                                         -------------------                                    --------------
                      STREAM DEPLETION =   7.733259                          STREAM DEPLETION =  0.9868680E-02
                      INFLOW TO STREAM =   2902.946                          INFLOW TO STREAM =   25.65000    
                          GW TO STREAM =   227.7808                              GW TO STREAM =  0.9990391    
                         PRECIPITATION =   0.000000                             PRECIPITATION =   0.000000    
                                RUNOFF =   0.000000                                    RUNOFF =   0.000000    
                CONSTANT CONCENTRATION =   0.000000                    CONSTANT CONCENTRATION =   0.000000    
                             MASS GAIN =   0.000000                                 MASS GAIN =   0.000000    
                                         -------------------                                    --------------
                              TOTAL IN =   3138.460                                  TOTAL IN =   26.65891    

                   STREAM ACCUMULATION =   1012.581                       STREAM ACCUMULATION =   17.33393    
                        STREAM OUTFLOW =   2125.889                            STREAM OUTFLOW =   9.324968    
                          STREAM TO GW =   0.000000                              STREAM TO GW =   0.000000    
                CONSTANT CONCENTRATION =   0.000000                    CONSTANT CONCENTRATION =   0.000000    
                           EVAPORATION =   0.000000                               EVAPORATION =   0.000000    
                             MASS LOSS =   0.000000                                 MASS LOSS =   0.000000    
                                         -------------------                                    --------------
                             TOTAL OUT =   3138.471                                 TOTAL OUT =   26.65889    

                        NET (IN - OUT) = -0.1049805E-01                        NET (IN - OUT) =  0.1335144E-04
                 DISCREPANCY (PERCENT) = -0.3344962E-03                 DISCREPANCY (PERCENT) =  0.5008249E-04
                                              FLOW ERR (QIN-QOUT-DV) = -0.9536743E-06 [L3/T]




 >>>>>>>>>>>>>>>>>>>>>>>>>>>>>>>>>>>>>>>>>>>>>>>>>>>>>>>FOR COMPONENT NO. 01<<<<<<<<<<<<<<<<<<<<<<<<<<<<<<<<<<<<<<<<<<<<<<<<<<<<<<<


                                            -------------------------------------------
                                                      TRANSPORT STEP NO.   58
                                            -------------------------------------------

 TOTAL ELAPSED TIME SINCE BEGINNING OF SIMULATION =   41040.00    D   
 .....................................................................

                     CUMULATIVE MASS BUDGETS AT END OF TRANSPORT STEP   58, TIME STEP    1, STRESS PERIOD    2
                     -----------------------------------------------------------------------------------------

                                                             IN                           OUT
                                                      ----------------             ----------------
                               CONSTANT CONCENTRATION:    0.000000                    0.000000    
                                        CONSTANT HEAD:    512.2715                   -284.4954    
                                               STREAM:    0.000000                   -227.7808    
                               MASS STOR (FLOW MODEL):   0.5161458E-02              -0.6986623E-07
                                MASS STORAGE (SOLUTE):    0.000000                    0.000000    
                            ---------------------------------------------------------------------------
                                              [TOTAL]:    512.2767     KG            -512.2762     KG  

                                                          NET (IN - OUT):   0.5493164E-03
                                                   DISCREPANCY (PERCENT):   0.1072305E-03
     2 CALLS TO GCG PACKAGE FOR TRANSPORT TIME STEP    59 IN FLOW TIME STEP     1 STRESS PERIOD     2
      2 TOTAL ITERATIONS
  MAXIMUM CONCENTRATION CHANGES FOR EACH ITERATION:
  MAX. CHANGE LAYER,ROW,COL MAX. CHANGE LAYER,ROW,COL MAX. CHANGE LAYER,ROW,COL MAX. CHANGE LAYER,ROW,COL MAX. CHANGE LAYER,ROW,COL
 ------------------------------------------------------------------------------------------------------------------------------------
    0.000     (  1,  1,  1)   0.000     (  1,  1,  1)


                     STREAM MASS BUDGETS AT END OF TRANSPORT STEP   59, TIME STEP    1, STRESS PERIOD    2 FOR COMPONENT   1
                     -------------------------------------------------------------------------------------------------------

                                         CUMULATIVE MASS [M]                                     MASS FOR THIS TIME STEP [M]
                                         -------------------                                    --------------
                      STREAM DEPLETION =   7.742599                          STREAM DEPLETION =  0.9340106E-02
                      INFLOW TO STREAM =   2928.596                          INFLOW TO STREAM =   25.65000    
                          GW TO STREAM =   228.7799                              GW TO STREAM =  0.9990391    
                         PRECIPITATION =   0.000000                             PRECIPITATION =   0.000000    
                                RUNOFF =   0.000000                                    RUNOFF =   0.000000    
                CONSTANT CONCENTRATION =   0.000000                    CONSTANT CONCENTRATION =   0.000000    
                             MASS GAIN =   0.000000                                 MASS GAIN =   0.000000    
                                         -------------------                                    --------------
                              TOTAL IN =   3165.118                                  TOTAL IN =   26.65838    

                   STREAM ACCUMULATION =   1029.914                       STREAM ACCUMULATION =   17.33293    
                        STREAM OUTFLOW =   2135.215                            STREAM OUTFLOW =   9.325438    
                          STREAM TO GW =   0.000000                              STREAM TO GW =   0.000000    
                CONSTANT CONCENTRATION =   0.000000                    CONSTANT CONCENTRATION =   0.000000    
                           EVAPORATION =   0.000000                               EVAPORATION =   0.000000    
                             MASS LOSS =   0.000000                                 MASS LOSS =   0.000000    
                                         -------------------                                    --------------
                             TOTAL OUT =   3165.129                                 TOTAL OUT =   26.65837    

                        NET (IN - OUT) = -0.1049805E-01                        NET (IN - OUT) =  0.7629395E-05
                 DISCREPANCY (PERCENT) = -0.3316789E-03                 DISCREPANCY (PERCENT) =  0.2861913E-04
                                              FLOW ERR (QIN-QOUT-DV) = -0.9536743E-06 [L3/T]




 >>>>>>>>>>>>>>>>>>>>>>>>>>>>>>>>>>>>>>>>>>>>>>>>>>>>>>>FOR COMPONENT NO. 01<<<<<<<<<<<<<<<<<<<<<<<<<<<<<<<<<<<<<<<<<<<<<<<<<<<<<<<


                                            -------------------------------------------
                                                      TRANSPORT STEP NO.   59
                                            -------------------------------------------

 TOTAL ELAPSED TIME SINCE BEGINNING OF SIMULATION =   41220.00    D   
 .....................................................................

                     CUMULATIVE MASS BUDGETS AT END OF TRANSPORT STEP   59, TIME STEP    1, STRESS PERIOD    2
                     -----------------------------------------------------------------------------------------

                                                             IN                           OUT
                                                      ----------------             ----------------
                               CONSTANT CONCENTRATION:    0.000000                    0.000000    
                                        CONSTANT HEAD:    514.5184                   -285.7431    
                                               STREAM:    0.000000                   -228.7799    
                               MASS STOR (FLOW MODEL):   0.5161483E-02              -0.6986623E-07
                                MASS STORAGE (SOLUTE):    0.000000                    0.000000    
                            ---------------------------------------------------------------------------
                                              [TOTAL]:    514.5236     KG            -514.5230     KG  

                                                          NET (IN - OUT):   0.5493164E-03
                                                   DISCREPANCY (PERCENT):   0.1067622E-03
     2 CALLS TO GCG PACKAGE FOR TRANSPORT TIME STEP    60 IN FLOW TIME STEP     1 STRESS PERIOD     2
      2 TOTAL ITERATIONS
  MAXIMUM CONCENTRATION CHANGES FOR EACH ITERATION:
  MAX. CHANGE LAYER,ROW,COL MAX. CHANGE LAYER,ROW,COL MAX. CHANGE LAYER,ROW,COL MAX. CHANGE LAYER,ROW,COL MAX. CHANGE LAYER,ROW,COL
 ------------------------------------------------------------------------------------------------------------------------------------
    0.000     (  1,  1,  1)   0.000     (  1,  1,  1)


                     STREAM MASS BUDGETS AT END OF TRANSPORT STEP   60, TIME STEP    1, STRESS PERIOD    2 FOR COMPONENT   1
                     -------------------------------------------------------------------------------------------------------

                                         CUMULATIVE MASS [M]                                     MASS FOR THIS TIME STEP [M]
                                         -------------------                                    --------------
                      STREAM DEPLETION =   7.751439                          STREAM DEPLETION =  0.8839169E-02
                      INFLOW TO STREAM =   2954.246                          INFLOW TO STREAM =   25.65000    
                          GW TO STREAM =   229.7789                              GW TO STREAM =  0.9990391    
                         PRECIPITATION =   0.000000                             PRECIPITATION =   0.000000    
                                RUNOFF =   0.000000                                    RUNOFF =   0.000000    
                CONSTANT CONCENTRATION =   0.000000                    CONSTANT CONCENTRATION =   0.000000    
                             MASS GAIN =   0.000000                                 MASS GAIN =   0.000000    
                                         -------------------                                    --------------
                              TOTAL IN =   3191.776                                  TOTAL IN =   26.65788    

                   STREAM ACCUMULATION =   1047.246                       STREAM ACCUMULATION =   17.33176    
                        STREAM OUTFLOW =   2144.541                            STREAM OUTFLOW =   9.326112    
                          STREAM TO GW =   0.000000                              STREAM TO GW =   0.000000    
                CONSTANT CONCENTRATION =   0.000000                    CONSTANT CONCENTRATION =   0.000000    
                           EVAPORATION =   0.000000                               EVAPORATION =   0.000000    
                             MASS LOSS =   0.000000                                 MASS LOSS =   0.000000    
                                         -------------------                                    --------------
                             TOTAL OUT =   3191.787                                 TOTAL OUT =   26.65787    

                        NET (IN - OUT) = -0.1074219E-01                        NET (IN - OUT) =  0.5722046E-05
                 DISCREPANCY (PERCENT) = -0.3365577E-03                 DISCREPANCY (PERCENT) =  0.2146475E-04
                                              FLOW ERR (QIN-QOUT-DV) = -0.9536743E-06 [L3/T]




 >>>>>>>>>>>>>>>>>>>>>>>>>>>>>>>>>>>>>>>>>>>>>>>>>>>>>>>FOR COMPONENT NO. 01<<<<<<<<<<<<<<<<<<<<<<<<<<<<<<<<<<<<<<<<<<<<<<<<<<<<<<<


                                            -------------------------------------------
                                                      TRANSPORT STEP NO.   60
                                            -------------------------------------------

 TOTAL ELAPSED TIME SINCE BEGINNING OF SIMULATION =   41400.00    D   
 .....................................................................

                     CUMULATIVE MASS BUDGETS AT END OF TRANSPORT STEP   60, TIME STEP    1, STRESS PERIOD    2
                     -----------------------------------------------------------------------------------------

                                                             IN                           OUT
                                                      ----------------             ----------------
                               CONSTANT CONCENTRATION:    0.000000                    0.000000    
                                        CONSTANT HEAD:    516.7652                   -286.9909    
                                               STREAM:    0.000000                   -229.7789    
                               MASS STOR (FLOW MODEL):   0.5161509E-02              -0.6986623E-07
                                MASS STORAGE (SOLUTE):    0.000000                    0.000000    
                            ---------------------------------------------------------------------------
                                              [TOTAL]:    516.7704     KG            -516.7698     KG  

                                                          NET (IN - OUT):   0.5493164E-03
                                                   DISCREPANCY (PERCENT):   0.1062980E-03


                                   ++++++++++++++++++++++++++++++++++++++++++++++++++++++++++++++
                                                       STRESS PERIOD NO.  003
                                   ++++++++++++++++++++++++++++++++++++++++++++++++++++++++++++++


 LENGTH OF CURRENT STRESS PERIOD =   45000.00    
 NUMBER OF TIME STEPS FOR CURRENT STRESS PERIOD =    1
 TIME STEP MULTIPLIER USED IN FLOW SOLUTION =   1.000000    

 ***Type of Transport Simulation is TRANSIENT

 USER-SPECIFIED TRANSPORT STEPSIZE =   180.0000    D   
 MAXIMUM NUMBER OF TRANSPORT STEPS ALLOWED  IN ONE FLOW TIME STEP =      2500
 MULTIPLIER FOR SUCCESSIVE TRANSPORT STEPS  [USED IN IMPLICIT SCHEMES] =     1.000
 MAXIMUM TRANSPORT STEP SIZE  [USED IN IMPLICIT SCHEMES] =   0.000000    D   

 POINT SINKS/SOURCES OF SPECIFIED CONCENTRATION REUSED FROM LAST STRESS PERIOD


 STREAM BOUNDARY CONDITIONS
 --------------------------


 NO. OF STREAM SINKS/SOURCES OF SPECIFIED CONCENTRATIONS =    1 IN STRESS PERIOD  3

      SFTN    BC-TYPE       CONC(1,NCOMP)
         1  HEADWATER       3.700000    


                                          ================================================
                                                         TIME STEP NO.  001
                                          ================================================

 FROM TIME =   41400.     TO    86400.    


                    "THKSAT          " FLOW TERMS FOR TIME STEP  1, STRESS PERIOD  3 READ UNFORMATTED ON UNIT 39
                    --------------------------------------------------------------------------------------------

                    "QXX             " FLOW TERMS FOR TIME STEP  1, STRESS PERIOD  3 READ UNFORMATTED ON UNIT 39
                    --------------------------------------------------------------------------------------------

                    "QYY             " FLOW TERMS FOR TIME STEP  1, STRESS PERIOD  3 READ UNFORMATTED ON UNIT 39
                    --------------------------------------------------------------------------------------------

                    "STO             " FLOW TERMS FOR TIME STEP  1, STRESS PERIOD  3 READ UNFORMATTED ON UNIT 39
                    --------------------------------------------------------------------------------------------

 MAXIMUM STEPSIZE DURING WHICH ANY PARTICLE CANNOT MOVE MORE THAN ONE CELL
 = 0.1912E+05(WHEN MIN. R.F.=1)  AT K=   1, I=   2, J= 106

 MAXIMUM STEPSIZE WHICH MEETS STABILITY CRITERION OF THE ADVECTION TERM
 (FOR PURE FINITE-DIFFERENCE OPTION, MIXELM=0) 
 = 0.1677E+05(WHEN MIN. R.F.=1)  AT K=   1, I=   3, J= 650

                    "CNH             " FLOW TERMS FOR TIME STEP  1, STRESS PERIOD  3 READ UNFORMATTED ON UNIT 39
                    --------------------------------------------------------------------------------------------

                    "SFR FLOWS SS    " FLOW TERMS FOR TIME STEP  1, STRESS PERIOD  3 READ UNFORMATTED ON UNIT 39
                    --------------------------------------------------------------------------------------------


 TOTAL NUMBER OF POINT SOURCES/SINKS PRESENT IN THE FLOW MODEL =  1300

 MAXIMUM STEPSIZE WHICH MEETS STABILITY CRITERION OF THE SINK & SOURCE TERM
 = 0.1791E+05(WHEN MIN. R.F.=1)  AT K=   1, I=   1, J=   1


     2 CALLS TO GCG PACKAGE FOR TRANSPORT TIME STEP     1 IN FLOW TIME STEP     1 STRESS PERIOD     3
      2 TOTAL ITERATIONS
  MAXIMUM CONCENTRATION CHANGES FOR EACH ITERATION:
  MAX. CHANGE LAYER,ROW,COL MAX. CHANGE LAYER,ROW,COL MAX. CHANGE LAYER,ROW,COL MAX. CHANGE LAYER,ROW,COL MAX. CHANGE LAYER,ROW,COL
 ------------------------------------------------------------------------------------------------------------------------------------
    0.000     (  1,  1,  1)   0.000     (  1,  1,  1)


                     STREAM MASS BUDGETS AT END OF TRANSPORT STEP    1, TIME STEP    1, STRESS PERIOD    3 FOR COMPONENT   1
                     -------------------------------------------------------------------------------------------------------

                                         CUMULATIVE MASS [M]                                     MASS FOR THIS TIME STEP [M]
                                         -------------------                                    --------------
                      STREAM DEPLETION =   25.07640                          STREAM DEPLETION =   17.32496    
                      INFLOW TO STREAM =   2962.571                          INFLOW TO STREAM =   8.325000    
                          GW TO STREAM =   230.7780                              GW TO STREAM =  0.9990391    
                         PRECIPITATION =   0.000000                             PRECIPITATION =   0.000000    
                                RUNOFF =   0.000000                                    RUNOFF =   0.000000    
                CONSTANT CONCENTRATION =   0.000000                    CONSTANT CONCENTRATION =   0.000000    
                             MASS GAIN =   0.000000                                 MASS GAIN =   0.000000    
                                         -------------------                                    --------------
                              TOTAL IN =   3218.425                                  TOTAL IN =   26.64900    

                   STREAM ACCUMULATION =   1064.568                       STREAM ACCUMULATION =   17.32194    
                        STREAM OUTFLOW =   2153.868                            STREAM OUTFLOW =   9.327065    
                          STREAM TO GW =   0.000000                              STREAM TO GW =   0.000000    
                CONSTANT CONCENTRATION =   0.000000                    CONSTANT CONCENTRATION =   0.000000    
                           EVAPORATION =   0.000000                               EVAPORATION =   0.000000    
                             MASS LOSS =   0.000000                                 MASS LOSS =   0.000000    
                                         -------------------                                    --------------
                             TOTAL OUT =   3218.436                                 TOTAL OUT =   26.64901    

                        NET (IN - OUT) = -0.1098633E-01                        NET (IN - OUT) = -0.5722046E-05
                 DISCREPANCY (PERCENT) = -0.3413567E-03                 DISCREPANCY (PERCENT) = -0.2147189E-04
                                              FLOW ERR (QIN-QOUT-DV) = -0.9536743E-06 [L3/T]




 >>>>>>>>>>>>>>>>>>>>>>>>>>>>>>>>>>>>>>>>>>>>>>>>>>>>>>>FOR COMPONENT NO. 01<<<<<<<<<<<<<<<<<<<<<<<<<<<<<<<<<<<<<<<<<<<<<<<<<<<<<<<


                                            -------------------------------------------
                                                      TRANSPORT STEP NO.    1
                                            -------------------------------------------

 TOTAL ELAPSED TIME SINCE BEGINNING OF SIMULATION =   41580.00    D   
 .....................................................................

                     CUMULATIVE MASS BUDGETS AT END OF TRANSPORT STEP    1, TIME STEP    1, STRESS PERIOD    3
                     -----------------------------------------------------------------------------------------

                                                             IN                           OUT
                                                      ----------------             ----------------
                               CONSTANT CONCENTRATION:    0.000000                    0.000000    
                                        CONSTANT HEAD:    519.0120                   -288.2387    
                                               STREAM:    0.000000                   -230.7780    
                               MASS STOR (FLOW MODEL):   0.5161509E-02              -0.6986623E-07
                                MASS STORAGE (SOLUTE):    0.000000                    0.000000    
                            ---------------------------------------------------------------------------
                                              [TOTAL]:    519.0172     KG            -519.0166     KG  

                                                          NET (IN - OUT):   0.6103516E-03
                                                   DISCREPANCY (PERCENT):   0.1175976E-03
     2 CALLS TO GCG PACKAGE FOR TRANSPORT TIME STEP     2 IN FLOW TIME STEP     1 STRESS PERIOD     3
      2 TOTAL ITERATIONS
  MAXIMUM CONCENTRATION CHANGES FOR EACH ITERATION:
  MAX. CHANGE LAYER,ROW,COL MAX. CHANGE LAYER,ROW,COL MAX. CHANGE LAYER,ROW,COL MAX. CHANGE LAYER,ROW,COL MAX. CHANGE LAYER,ROW,COL
 ------------------------------------------------------------------------------------------------------------------------------------
    0.000     (  1,  1,  1)   0.000     (  1,  1,  1)


                     STREAM MASS BUDGETS AT END OF TRANSPORT STEP    2, TIME STEP    1, STRESS PERIOD    3 FOR COMPONENT   1
                     -------------------------------------------------------------------------------------------------------

                                         CUMULATIVE MASS [M]                                     MASS FOR THIS TIME STEP [M]
                                         -------------------                                    --------------
                      STREAM DEPLETION =   43.52886                          STREAM DEPLETION =   18.45246    
                      INFLOW TO STREAM =   2970.896                          INFLOW TO STREAM =   8.325000    
                          GW TO STREAM =   231.7770                              GW TO STREAM =  0.9990391    
                         PRECIPITATION =   0.000000                             PRECIPITATION =   0.000000    
                                RUNOFF =   0.000000                                    RUNOFF =   0.000000    
                CONSTANT CONCENTRATION =   0.000000                    CONSTANT CONCENTRATION =   0.000000    
                             MASS GAIN =   0.000000                                 MASS GAIN =   0.000000    
                                         -------------------                                    --------------
                              TOTAL IN =   3246.202                                  TOTAL IN =   27.77649    

                   STREAM ACCUMULATION =   1083.016                       STREAM ACCUMULATION =   18.44809    
                        STREAM OUTFLOW =   2163.196                            STREAM OUTFLOW =   9.328391    
                          STREAM TO GW =   0.000000                              STREAM TO GW =   0.000000    
                CONSTANT CONCENTRATION =   0.000000                    CONSTANT CONCENTRATION =   0.000000    
                           EVAPORATION =   0.000000                               EVAPORATION =   0.000000    
                             MASS LOSS =   0.000000                                 MASS LOSS =   0.000000    
                                         -------------------                                    --------------
                             TOTAL OUT =   3246.212                                 TOTAL OUT =   27.77648    

                        NET (IN - OUT) = -0.1074219E-01                        NET (IN - OUT) =  0.1144409E-04
                 DISCREPANCY (PERCENT) = -0.3309150E-03                 DISCREPANCY (PERCENT) =  0.4120064E-04
                                              FLOW ERR (QIN-QOUT-DV) = -0.9536743E-06 [L3/T]




 >>>>>>>>>>>>>>>>>>>>>>>>>>>>>>>>>>>>>>>>>>>>>>>>>>>>>>>FOR COMPONENT NO. 01<<<<<<<<<<<<<<<<<<<<<<<<<<<<<<<<<<<<<<<<<<<<<<<<<<<<<<<


                                            -------------------------------------------
                                                      TRANSPORT STEP NO.    2
                                            -------------------------------------------

 TOTAL ELAPSED TIME SINCE BEGINNING OF SIMULATION =   41760.00    D   
 .....................................................................

                     CUMULATIVE MASS BUDGETS AT END OF TRANSPORT STEP    2, TIME STEP    1, STRESS PERIOD    3
                     -----------------------------------------------------------------------------------------

                                                             IN                           OUT
                                                      ----------------             ----------------
                               CONSTANT CONCENTRATION:    0.000000                    0.000000    
                                        CONSTANT HEAD:    521.2589                   -289.4865    
                                               STREAM:    0.000000                   -231.7770    
                               MASS STOR (FLOW MODEL):   0.5161509E-02              -0.6986623E-07
                                MASS STORAGE (SOLUTE):    0.000000                    0.000000    
                            ---------------------------------------------------------------------------
                                              [TOTAL]:    521.2640     KG            -521.2634     KG  

                                                          NET (IN - OUT):   0.6103516E-03
                                                   DISCREPANCY (PERCENT):   0.1170907E-03
     2 CALLS TO GCG PACKAGE FOR TRANSPORT TIME STEP     3 IN FLOW TIME STEP     1 STRESS PERIOD     3
      2 TOTAL ITERATIONS
  MAXIMUM CONCENTRATION CHANGES FOR EACH ITERATION:
  MAX. CHANGE LAYER,ROW,COL MAX. CHANGE LAYER,ROW,COL MAX. CHANGE LAYER,ROW,COL MAX. CHANGE LAYER,ROW,COL MAX. CHANGE LAYER,ROW,COL
 ------------------------------------------------------------------------------------------------------------------------------------
    0.000     (  1,  1,  1)   0.000     (  1,  1,  1)


                     STREAM MASS BUDGETS AT END OF TRANSPORT STEP    3, TIME STEP    1, STRESS PERIOD    3 FOR COMPONENT   1
                     -------------------------------------------------------------------------------------------------------

                                         CUMULATIVE MASS [M]                                     MASS FOR THIS TIME STEP [M]
                                         -------------------                                    --------------
                      STREAM DEPLETION =   61.44468                          STREAM DEPLETION =   17.91582    
                      INFLOW TO STREAM =   2979.221                          INFLOW TO STREAM =   8.325000    
                          GW TO STREAM =   232.7760                              GW TO STREAM =  0.9990391    
                         PRECIPITATION =   0.000000                             PRECIPITATION =   0.000000    
                                RUNOFF =   0.000000                                    RUNOFF =   0.000000    
                CONSTANT CONCENTRATION =   0.000000                    CONSTANT CONCENTRATION =   0.000000    
                             MASS GAIN =   0.000000                                 MASS GAIN =   0.000000    
                                         -------------------                                    --------------
                              TOTAL IN =   3273.441                                  TOTAL IN =   27.23986    

                   STREAM ACCUMULATION =   1100.926                       STREAM ACCUMULATION =   17.90967    
                        STREAM OUTFLOW =   2172.527                            STREAM OUTFLOW =   9.330211    
                          STREAM TO GW =   0.000000                              STREAM TO GW =   0.000000    
                CONSTANT CONCENTRATION =   0.000000                    CONSTANT CONCENTRATION =   0.000000    
                           EVAPORATION =   0.000000                               EVAPORATION =   0.000000    
                             MASS LOSS =   0.000000                                 MASS LOSS =   0.000000    
                                         -------------------                                    --------------
                             TOTAL OUT =   3273.452                                 TOTAL OUT =   27.23988    

                        NET (IN - OUT) = -0.1098633E-01                        NET (IN - OUT) = -0.2670288E-04
                 DISCREPANCY (PERCENT) = -0.3356196E-03                 DISCREPANCY (PERCENT) = -0.9802866E-04
                                              FLOW ERR (QIN-QOUT-DV) = -0.9536743E-06 [L3/T]




 >>>>>>>>>>>>>>>>>>>>>>>>>>>>>>>>>>>>>>>>>>>>>>>>>>>>>>>FOR COMPONENT NO. 01<<<<<<<<<<<<<<<<<<<<<<<<<<<<<<<<<<<<<<<<<<<<<<<<<<<<<<<


                                            -------------------------------------------
                                                      TRANSPORT STEP NO.    3
                                            -------------------------------------------

 TOTAL ELAPSED TIME SINCE BEGINNING OF SIMULATION =   41940.00    D   
 .....................................................................

                     CUMULATIVE MASS BUDGETS AT END OF TRANSPORT STEP    3, TIME STEP    1, STRESS PERIOD    3
                     -----------------------------------------------------------------------------------------

                                                             IN                           OUT
                                                      ----------------             ----------------
                               CONSTANT CONCENTRATION:    0.000000                    0.000000    
                                        CONSTANT HEAD:    523.5057                   -290.7342    
                                               STREAM:    0.000000                   -232.7760    
                               MASS STOR (FLOW MODEL):   0.5161509E-02              -0.6986623E-07
                                MASS STORAGE (SOLUTE):    0.000000                    0.000000    
                            ---------------------------------------------------------------------------
                                              [TOTAL]:    523.5109     KG            -523.5103     KG  

                                                          NET (IN - OUT):   0.6103516E-03
                                                   DISCREPANCY (PERCENT):   0.1165882E-03
     2 CALLS TO GCG PACKAGE FOR TRANSPORT TIME STEP     4 IN FLOW TIME STEP     1 STRESS PERIOD     3
      2 TOTAL ITERATIONS
  MAXIMUM CONCENTRATION CHANGES FOR EACH ITERATION:
  MAX. CHANGE LAYER,ROW,COL MAX. CHANGE LAYER,ROW,COL MAX. CHANGE LAYER,ROW,COL MAX. CHANGE LAYER,ROW,COL MAX. CHANGE LAYER,ROW,COL
 ------------------------------------------------------------------------------------------------------------------------------------
    0.000     (  1,  1,  1)   0.000     (  1,  1,  1)


                     STREAM MASS BUDGETS AT END OF TRANSPORT STEP    4, TIME STEP    1, STRESS PERIOD    3 FOR COMPONENT   1
                     -------------------------------------------------------------------------------------------------------

                                         CUMULATIVE MASS [M]                                     MASS FOR THIS TIME STEP [M]
                                         -------------------                                    --------------
                      STREAM DEPLETION =   79.30447                          STREAM DEPLETION =   17.85979    
                      INFLOW TO STREAM =   2987.546                          INFLOW TO STREAM =   8.325000    
                          GW TO STREAM =   233.7751                              GW TO STREAM =  0.9990391    
                         PRECIPITATION =   0.000000                             PRECIPITATION =   0.000000    
                                RUNOFF =   0.000000                                    RUNOFF =   0.000000    
                CONSTANT CONCENTRATION =   0.000000                    CONSTANT CONCENTRATION =   0.000000    
                             MASS GAIN =   0.000000                                 MASS GAIN =   0.000000    
                                         -------------------                                    --------------
                              TOTAL IN =   3300.625                                  TOTAL IN =   27.18383    

                   STREAM ACCUMULATION =   1118.777                       STREAM ACCUMULATION =   17.85115    
                        STREAM OUTFLOW =   2181.859                            STREAM OUTFLOW =   9.332672    
                          STREAM TO GW =   0.000000                              STREAM TO GW =   0.000000    
                CONSTANT CONCENTRATION =   0.000000                    CONSTANT CONCENTRATION =   0.000000    
                           EVAPORATION =   0.000000                               EVAPORATION =   0.000000    
                             MASS LOSS =   0.000000                                 MASS LOSS =   0.000000    
                                         -------------------                                    --------------
                             TOTAL OUT =   3300.636                                 TOTAL OUT =   27.18383    

                        NET (IN - OUT) = -0.1098633E-01                        NET (IN - OUT) =  0.3814697E-05
                 DISCREPANCY (PERCENT) = -0.3328554E-03                 DISCREPANCY (PERCENT) =  0.1403297E-04
                                              FLOW ERR (QIN-QOUT-DV) = -0.9536743E-06 [L3/T]




 >>>>>>>>>>>>>>>>>>>>>>>>>>>>>>>>>>>>>>>>>>>>>>>>>>>>>>>FOR COMPONENT NO. 01<<<<<<<<<<<<<<<<<<<<<<<<<<<<<<<<<<<<<<<<<<<<<<<<<<<<<<<


                                            -------------------------------------------
                                                      TRANSPORT STEP NO.    4
                                            -------------------------------------------

 TOTAL ELAPSED TIME SINCE BEGINNING OF SIMULATION =   42120.00    D   
 .....................................................................

                     CUMULATIVE MASS BUDGETS AT END OF TRANSPORT STEP    4, TIME STEP    1, STRESS PERIOD    3
                     -----------------------------------------------------------------------------------------

                                                             IN                           OUT
                                                      ----------------             ----------------
                               CONSTANT CONCENTRATION:    0.000000                    0.000000    
                                        CONSTANT HEAD:    525.7525                   -291.9820    
                                               STREAM:    0.000000                   -233.7751    
                               MASS STOR (FLOW MODEL):   0.5161509E-02              -0.6986623E-07
                                MASS STORAGE (SOLUTE):    0.000000                    0.000000    
                            ---------------------------------------------------------------------------
                                              [TOTAL]:    525.7577     KG            -525.7571     KG  

                                                          NET (IN - OUT):   0.6103516E-03
                                                   DISCREPANCY (PERCENT):   0.1160900E-03
     2 CALLS TO GCG PACKAGE FOR TRANSPORT TIME STEP     5 IN FLOW TIME STEP     1 STRESS PERIOD     3
      2 TOTAL ITERATIONS
  MAXIMUM CONCENTRATION CHANGES FOR EACH ITERATION:
  MAX. CHANGE LAYER,ROW,COL MAX. CHANGE LAYER,ROW,COL MAX. CHANGE LAYER,ROW,COL MAX. CHANGE LAYER,ROW,COL MAX. CHANGE LAYER,ROW,COL
 ------------------------------------------------------------------------------------------------------------------------------------
    0.000     (  1,  1,  1)   0.000     (  1,  1,  1)


                     STREAM MASS BUDGETS AT END OF TRANSPORT STEP    5, TIME STEP    1, STRESS PERIOD    3 FOR COMPONENT   1
                     -------------------------------------------------------------------------------------------------------

                                         CUMULATIVE MASS [M]                                     MASS FOR THIS TIME STEP [M]
                                         -------------------                                    --------------
                      STREAM DEPLETION =   97.19086                          STREAM DEPLETION =   17.88638    
                      INFLOW TO STREAM =   2995.871                          INFLOW TO STREAM =   8.325000    
                          GW TO STREAM =   234.7741                              GW TO STREAM =  0.9990391    
                         PRECIPITATION =   0.000000                             PRECIPITATION =   0.000000    
                                RUNOFF =   0.000000                                    RUNOFF =   0.000000    
                CONSTANT CONCENTRATION =   0.000000                    CONSTANT CONCENTRATION =   0.000000    
                             MASS GAIN =   0.000000                                 MASS GAIN =   0.000000    
                                         -------------------                                    --------------
                              TOTAL IN =   3327.835                                  TOTAL IN =   27.21042    

                   STREAM ACCUMULATION =   1136.651                       STREAM ACCUMULATION =   17.87447    
                        STREAM OUTFLOW =   2191.195                            STREAM OUTFLOW =   9.335959    
                          STREAM TO GW =   0.000000                              STREAM TO GW =   0.000000    
                CONSTANT CONCENTRATION =   0.000000                    CONSTANT CONCENTRATION =   0.000000    
                           EVAPORATION =   0.000000                               EVAPORATION =   0.000000    
                             MASS LOSS =   0.000000                                 MASS LOSS =   0.000000    
                                         -------------------                                    --------------
                             TOTAL OUT =   3327.847                                 TOTAL OUT =   27.21043    

                        NET (IN - OUT) = -0.1123047E-01                        NET (IN - OUT) = -0.3814697E-05
                 DISCREPANCY (PERCENT) = -0.3374701E-03                 DISCREPANCY (PERCENT) = -0.1401925E-04
                                              FLOW ERR (QIN-QOUT-DV) = -0.9536743E-06 [L3/T]




 >>>>>>>>>>>>>>>>>>>>>>>>>>>>>>>>>>>>>>>>>>>>>>>>>>>>>>>FOR COMPONENT NO. 01<<<<<<<<<<<<<<<<<<<<<<<<<<<<<<<<<<<<<<<<<<<<<<<<<<<<<<<


                                            -------------------------------------------
                                                      TRANSPORT STEP NO.    5
                                            -------------------------------------------

 TOTAL ELAPSED TIME SINCE BEGINNING OF SIMULATION =   42300.00    D   
 .....................................................................

                     CUMULATIVE MASS BUDGETS AT END OF TRANSPORT STEP    5, TIME STEP    1, STRESS PERIOD    3
                     -----------------------------------------------------------------------------------------

                                                             IN                           OUT
                                                      ----------------             ----------------
                               CONSTANT CONCENTRATION:    0.000000                    0.000000    
                                        CONSTANT HEAD:    527.9993                   -293.2298    
                                               STREAM:    0.000000                   -234.7741    
                               MASS STOR (FLOW MODEL):   0.5161509E-02              -0.6986623E-07
                                MASS STORAGE (SOLUTE):    0.000000                    0.000000    
                            ---------------------------------------------------------------------------
                                              [TOTAL]:    528.0045     KG            -528.0039     KG  

                                                          NET (IN - OUT):   0.6103516E-03
                                                   DISCREPANCY (PERCENT):   0.1155960E-03
     2 CALLS TO GCG PACKAGE FOR TRANSPORT TIME STEP     6 IN FLOW TIME STEP     1 STRESS PERIOD     3
      2 TOTAL ITERATIONS
  MAXIMUM CONCENTRATION CHANGES FOR EACH ITERATION:
  MAX. CHANGE LAYER,ROW,COL MAX. CHANGE LAYER,ROW,COL MAX. CHANGE LAYER,ROW,COL MAX. CHANGE LAYER,ROW,COL MAX. CHANGE LAYER,ROW,COL
 ------------------------------------------------------------------------------------------------------------------------------------
    0.000     (  1,  1,  1)   0.000     (  1,  1,  1)


                     STREAM MASS BUDGETS AT END OF TRANSPORT STEP    6, TIME STEP    1, STRESS PERIOD    3 FOR COMPONENT   1
                     -------------------------------------------------------------------------------------------------------

                                         CUMULATIVE MASS [M]                                     MASS FOR THIS TIME STEP [M]
                                         -------------------                                    --------------
                      STREAM DEPLETION =   114.9879                          STREAM DEPLETION =   17.79701    
                      INFLOW TO STREAM =   3004.196                          INFLOW TO STREAM =   8.325000    
                          GW TO STREAM =   235.7731                              GW TO STREAM =  0.9990391    
                         PRECIPITATION =   0.000000                             PRECIPITATION =   0.000000    
                                RUNOFF =   0.000000                                    RUNOFF =   0.000000    
                CONSTANT CONCENTRATION =   0.000000                    CONSTANT CONCENTRATION =   0.000000    
                             MASS GAIN =   0.000000                                 MASS GAIN =   0.000000    
                                         -------------------                                    --------------
                              TOTAL IN =   3354.957                                  TOTAL IN =   27.12105    

                   STREAM ACCUMULATION =   1154.432                       STREAM ACCUMULATION =   17.78076    
                        STREAM OUTFLOW =   2200.536                            STREAM OUTFLOW =   9.340292    
                          STREAM TO GW =   0.000000                              STREAM TO GW =   0.000000    
                CONSTANT CONCENTRATION =   0.000000                    CONSTANT CONCENTRATION =   0.000000    
                           EVAPORATION =   0.000000                               EVAPORATION =   0.000000    
                             MASS LOSS =   0.000000                                 MASS LOSS =   0.000000    
                                         -------------------                                    --------------
                             TOTAL OUT =   3354.968                                 TOTAL OUT =   27.12105    

                        NET (IN - OUT) = -0.1123047E-01                        NET (IN - OUT) = -0.3814697E-05
                 DISCREPANCY (PERCENT) = -0.3347420E-03                 DISCREPANCY (PERCENT) = -0.1406545E-04
                                              FLOW ERR (QIN-QOUT-DV) = -0.9536743E-06 [L3/T]




 >>>>>>>>>>>>>>>>>>>>>>>>>>>>>>>>>>>>>>>>>>>>>>>>>>>>>>>FOR COMPONENT NO. 01<<<<<<<<<<<<<<<<<<<<<<<<<<<<<<<<<<<<<<<<<<<<<<<<<<<<<<<


                                            -------------------------------------------
                                                      TRANSPORT STEP NO.    6
                                            -------------------------------------------

 TOTAL ELAPSED TIME SINCE BEGINNING OF SIMULATION =   42480.00    D   
 .....................................................................

                     CUMULATIVE MASS BUDGETS AT END OF TRANSPORT STEP    6, TIME STEP    1, STRESS PERIOD    3
                     -----------------------------------------------------------------------------------------

                                                             IN                           OUT
                                                      ----------------             ----------------
                               CONSTANT CONCENTRATION:    0.000000                    0.000000    
                                        CONSTANT HEAD:    530.2462                   -294.4775    
                                               STREAM:    0.000000                   -235.7731    
                               MASS STOR (FLOW MODEL):   0.5161509E-02              -0.6986623E-07
                                MASS STORAGE (SOLUTE):    0.000000                    0.000000    
                            ---------------------------------------------------------------------------
                                              [TOTAL]:    530.2513     KG            -530.2507     KG  

                                                          NET (IN - OUT):   0.6713867E-03
                                                   DISCREPANCY (PERCENT):   0.1266168E-03
     2 CALLS TO GCG PACKAGE FOR TRANSPORT TIME STEP     7 IN FLOW TIME STEP     1 STRESS PERIOD     3
      2 TOTAL ITERATIONS
  MAXIMUM CONCENTRATION CHANGES FOR EACH ITERATION:
  MAX. CHANGE LAYER,ROW,COL MAX. CHANGE LAYER,ROW,COL MAX. CHANGE LAYER,ROW,COL MAX. CHANGE LAYER,ROW,COL MAX. CHANGE LAYER,ROW,COL
 ------------------------------------------------------------------------------------------------------------------------------------
    0.000     (  1,  1,  1)   0.000     (  1,  1,  1)


                     STREAM MASS BUDGETS AT END OF TRANSPORT STEP    7, TIME STEP    1, STRESS PERIOD    3 FOR COMPONENT   1
                     -------------------------------------------------------------------------------------------------------

                                         CUMULATIVE MASS [M]                                     MASS FOR THIS TIME STEP [M]
                                         -------------------                                    --------------
                      STREAM DEPLETION =   132.7302                          STREAM DEPLETION =   17.74234    
                      INFLOW TO STREAM =   3012.521                          INFLOW TO STREAM =   8.325000    
                          GW TO STREAM =   236.7722                              GW TO STREAM =  0.9990391    
                         PRECIPITATION =   0.000000                             PRECIPITATION =   0.000000    
                                RUNOFF =   0.000000                                    RUNOFF =   0.000000    
                CONSTANT CONCENTRATION =   0.000000                    CONSTANT CONCENTRATION =   0.000000    
                             MASS GAIN =   0.000000                                 MASS GAIN =   0.000000    
                                         -------------------                                    --------------
                              TOTAL IN =   3382.023                                  TOTAL IN =   27.06638    

                   STREAM ACCUMULATION =   1172.153                       STREAM ACCUMULATION =   17.72045    
                        STREAM OUTFLOW =   2209.882                            STREAM OUTFLOW =   9.345930    
                          STREAM TO GW =   0.000000                              STREAM TO GW =   0.000000    
                CONSTANT CONCENTRATION =   0.000000                    CONSTANT CONCENTRATION =   0.000000    
                           EVAPORATION =   0.000000                               EVAPORATION =   0.000000    
                             MASS LOSS =   0.000000                                 MASS LOSS =   0.000000    
                                         -------------------                                    --------------
                             TOTAL OUT =   3382.034                                 TOTAL OUT =   27.06638    

                        NET (IN - OUT) = -0.1123047E-01                        NET (IN - OUT) = -0.1907349E-05
                 DISCREPANCY (PERCENT) = -0.3320631E-03                 DISCREPANCY (PERCENT) = -0.7046929E-05
                                              FLOW ERR (QIN-QOUT-DV) = -0.9536743E-06 [L3/T]




 >>>>>>>>>>>>>>>>>>>>>>>>>>>>>>>>>>>>>>>>>>>>>>>>>>>>>>>FOR COMPONENT NO. 01<<<<<<<<<<<<<<<<<<<<<<<<<<<<<<<<<<<<<<<<<<<<<<<<<<<<<<<


                                            -------------------------------------------
                                                      TRANSPORT STEP NO.    7
                                            -------------------------------------------

 TOTAL ELAPSED TIME SINCE BEGINNING OF SIMULATION =   42660.00    D   
 .....................................................................

                     CUMULATIVE MASS BUDGETS AT END OF TRANSPORT STEP    7, TIME STEP    1, STRESS PERIOD    3
                     -----------------------------------------------------------------------------------------

                                                             IN                           OUT
                                                      ----------------             ----------------
                               CONSTANT CONCENTRATION:    0.000000                    0.000000    
                                        CONSTANT HEAD:    532.4930                   -295.7253    
                                               STREAM:    0.000000                   -236.7722    
                               MASS STOR (FLOW MODEL):   0.5161509E-02              -0.6986623E-07
                                MASS STORAGE (SOLUTE):    0.000000                    0.000000    
                            ---------------------------------------------------------------------------
                                              [TOTAL]:    532.4982     KG            -532.4975     KG  

                                                          NET (IN - OUT):   0.6713867E-03
                                                   DISCREPANCY (PERCENT):   0.1260825E-03
     2 CALLS TO GCG PACKAGE FOR TRANSPORT TIME STEP     8 IN FLOW TIME STEP     1 STRESS PERIOD     3
      2 TOTAL ITERATIONS
  MAXIMUM CONCENTRATION CHANGES FOR EACH ITERATION:
  MAX. CHANGE LAYER,ROW,COL MAX. CHANGE LAYER,ROW,COL MAX. CHANGE LAYER,ROW,COL MAX. CHANGE LAYER,ROW,COL MAX. CHANGE LAYER,ROW,COL
 ------------------------------------------------------------------------------------------------------------------------------------
    0.000     (  1,  1,  1)   0.000     (  1,  1,  1)


                     STREAM MASS BUDGETS AT END OF TRANSPORT STEP    8, TIME STEP    1, STRESS PERIOD    3 FOR COMPONENT   1
                     -------------------------------------------------------------------------------------------------------

                                         CUMULATIVE MASS [M]                                     MASS FOR THIS TIME STEP [M]
                                         -------------------                                    --------------
                      STREAM DEPLETION =   150.4392                          STREAM DEPLETION =   17.70895    
                      INFLOW TO STREAM =   3020.845                          INFLOW TO STREAM =   8.325000    
                          GW TO STREAM =   237.7712                              GW TO STREAM =  0.9990391    
                         PRECIPITATION =   0.000000                             PRECIPITATION =   0.000000    
                                RUNOFF =   0.000000                                    RUNOFF =   0.000000    
                CONSTANT CONCENTRATION =   0.000000                    CONSTANT CONCENTRATION =   0.000000    
                             MASS GAIN =   0.000000                                 MASS GAIN =   0.000000    
                                         -------------------                                    --------------
                              TOTAL IN =   3409.056                                  TOTAL IN =   27.03299    

                   STREAM ACCUMULATION =   1189.833                       STREAM ACCUMULATION =   17.67981    
                        STREAM OUTFLOW =   2219.235                            STREAM OUTFLOW =   9.353181    
                          STREAM TO GW =   0.000000                              STREAM TO GW =   0.000000    
                CONSTANT CONCENTRATION =   0.000000                    CONSTANT CONCENTRATION =   0.000000    
                           EVAPORATION =   0.000000                               EVAPORATION =   0.000000    
                             MASS LOSS =   0.000000                                 MASS LOSS =   0.000000    
                                         -------------------                                    --------------
                             TOTAL OUT =   3409.067                                 TOTAL OUT =   27.03299    

                        NET (IN - OUT) = -0.1147461E-01                        NET (IN - OUT) = -0.3814697E-05
                 DISCREPANCY (PERCENT) = -0.3365914E-03                 DISCREPANCY (PERCENT) = -0.1411127E-04
                                              FLOW ERR (QIN-QOUT-DV) = -0.9536743E-06 [L3/T]




 >>>>>>>>>>>>>>>>>>>>>>>>>>>>>>>>>>>>>>>>>>>>>>>>>>>>>>>FOR COMPONENT NO. 01<<<<<<<<<<<<<<<<<<<<<<<<<<<<<<<<<<<<<<<<<<<<<<<<<<<<<<<


                                            -------------------------------------------
                                                      TRANSPORT STEP NO.    8
                                            -------------------------------------------

 TOTAL ELAPSED TIME SINCE BEGINNING OF SIMULATION =   42840.00    D   
 .....................................................................

                     CUMULATIVE MASS BUDGETS AT END OF TRANSPORT STEP    8, TIME STEP    1, STRESS PERIOD    3
                     -----------------------------------------------------------------------------------------

                                                             IN                           OUT
                                                      ----------------             ----------------
                               CONSTANT CONCENTRATION:    0.000000                    0.000000    
                                        CONSTANT HEAD:    534.7398                   -296.9731    
                                               STREAM:    0.000000                   -237.7712    
                               MASS STOR (FLOW MODEL):   0.5161509E-02              -0.6986623E-07
                                MASS STORAGE (SOLUTE):    0.000000                    0.000000    
                            ---------------------------------------------------------------------------
                                              [TOTAL]:    534.7450     KG            -534.7443     KG  

                                                          NET (IN - OUT):   0.6713867E-03
                                                   DISCREPANCY (PERCENT):   0.1255528E-03
     2 CALLS TO GCG PACKAGE FOR TRANSPORT TIME STEP     9 IN FLOW TIME STEP     1 STRESS PERIOD     3
      2 TOTAL ITERATIONS
  MAXIMUM CONCENTRATION CHANGES FOR EACH ITERATION:
  MAX. CHANGE LAYER,ROW,COL MAX. CHANGE LAYER,ROW,COL MAX. CHANGE LAYER,ROW,COL MAX. CHANGE LAYER,ROW,COL MAX. CHANGE LAYER,ROW,COL
 ------------------------------------------------------------------------------------------------------------------------------------
    0.000     (  1,  1,  1)   0.000     (  1,  1,  1)


                     STREAM MASS BUDGETS AT END OF TRANSPORT STEP    9, TIME STEP    1, STRESS PERIOD    3 FOR COMPONENT   1
                     -------------------------------------------------------------------------------------------------------

                                         CUMULATIVE MASS [M]                                     MASS FOR THIS TIME STEP [M]
                                         -------------------                                    --------------
                      STREAM DEPLETION =   168.0888                          STREAM DEPLETION =   17.64962    
                      INFLOW TO STREAM =   3029.170                          INFLOW TO STREAM =   8.325000    
                          GW TO STREAM =   238.7703                              GW TO STREAM =  0.9990391    
                         PRECIPITATION =   0.000000                             PRECIPITATION =   0.000000    
                                RUNOFF =   0.000000                                    RUNOFF =   0.000000    
                CONSTANT CONCENTRATION =   0.000000                    CONSTANT CONCENTRATION =   0.000000    
                             MASS GAIN =   0.000000                                 MASS GAIN =   0.000000    
                                         -------------------                                    --------------
                              TOTAL IN =   3436.030                                  TOTAL IN =   26.97366    

                   STREAM ACCUMULATION =   1207.444                       STREAM ACCUMULATION =   17.61127    
                        STREAM OUTFLOW =   2228.597                            STREAM OUTFLOW =   9.362397    
                          STREAM TO GW =   0.000000                              STREAM TO GW =   0.000000    
                CONSTANT CONCENTRATION =   0.000000                    CONSTANT CONCENTRATION =   0.000000    
                           EVAPORATION =   0.000000                               EVAPORATION =   0.000000    
                             MASS LOSS =   0.000000                                 MASS LOSS =   0.000000    
                                         -------------------                                    --------------
                             TOTAL OUT =   3436.041                                 TOTAL OUT =   26.97366    

                        NET (IN - OUT) = -0.1147461E-01                        NET (IN - OUT) = -0.3814697E-05
                 DISCREPANCY (PERCENT) = -0.3339491E-03                 DISCREPANCY (PERCENT) = -0.1414230E-04
                                              FLOW ERR (QIN-QOUT-DV) = -0.9536743E-06 [L3/T]




 >>>>>>>>>>>>>>>>>>>>>>>>>>>>>>>>>>>>>>>>>>>>>>>>>>>>>>>FOR COMPONENT NO. 01<<<<<<<<<<<<<<<<<<<<<<<<<<<<<<<<<<<<<<<<<<<<<<<<<<<<<<<


                                            -------------------------------------------
                                                      TRANSPORT STEP NO.    9
                                            -------------------------------------------

 TOTAL ELAPSED TIME SINCE BEGINNING OF SIMULATION =   43020.00    D   
 .....................................................................

                     CUMULATIVE MASS BUDGETS AT END OF TRANSPORT STEP    9, TIME STEP    1, STRESS PERIOD    3
                     -----------------------------------------------------------------------------------------

                                                             IN                           OUT
                                                      ----------------             ----------------
                               CONSTANT CONCENTRATION:    0.000000                    0.000000    
                                        CONSTANT HEAD:    536.9866                   -298.2209    
                                               STREAM:    0.000000                   -238.7703    
                               MASS STOR (FLOW MODEL):   0.5161509E-02              -0.6986623E-07
                                MASS STORAGE (SOLUTE):    0.000000                    0.000000    
                            ---------------------------------------------------------------------------
                                              [TOTAL]:    536.9918     KG            -536.9911     KG  

                                                          NET (IN - OUT):   0.7324219E-03
                                                   DISCREPANCY (PERCENT):   0.1363936E-03
     2 CALLS TO GCG PACKAGE FOR TRANSPORT TIME STEP    10 IN FLOW TIME STEP     1 STRESS PERIOD     3
      2 TOTAL ITERATIONS
  MAXIMUM CONCENTRATION CHANGES FOR EACH ITERATION:
  MAX. CHANGE LAYER,ROW,COL MAX. CHANGE LAYER,ROW,COL MAX. CHANGE LAYER,ROW,COL MAX. CHANGE LAYER,ROW,COL MAX. CHANGE LAYER,ROW,COL
 ------------------------------------------------------------------------------------------------------------------------------------
    0.000     (  1,  1,  1)   0.000     (  1,  1,  1)


                     STREAM MASS BUDGETS AT END OF TRANSPORT STEP   10, TIME STEP    1, STRESS PERIOD    3 FOR COMPONENT   1
                     -------------------------------------------------------------------------------------------------------

                                         CUMULATIVE MASS [M]                                     MASS FOR THIS TIME STEP [M]
                                         -------------------                                    --------------
                      STREAM DEPLETION =   185.7043                          STREAM DEPLETION =   17.61555    
                      INFLOW TO STREAM =   3037.495                          INFLOW TO STREAM =   8.325000    
                          GW TO STREAM =   239.7693                              GW TO STREAM =  0.9990391    
                         PRECIPITATION =   0.000000                             PRECIPITATION =   0.000000    
                                RUNOFF =   0.000000                                    RUNOFF =   0.000000    
                CONSTANT CONCENTRATION =   0.000000                    CONSTANT CONCENTRATION =   0.000000    
                             MASS GAIN =   0.000000                                 MASS GAIN =   0.000000    
                                         -------------------                                    --------------
                              TOTAL IN =   3462.969                                  TOTAL IN =   26.93959    

                   STREAM ACCUMULATION =   1225.009                       STREAM ACCUMULATION =   17.56560    
                        STREAM OUTFLOW =   2237.971                            STREAM OUTFLOW =   9.373984    
                          STREAM TO GW =   0.000000                              STREAM TO GW =   0.000000    
                CONSTANT CONCENTRATION =   0.000000                    CONSTANT CONCENTRATION =   0.000000    
                           EVAPORATION =   0.000000                               EVAPORATION =   0.000000    
                             MASS LOSS =   0.000000                                 MASS LOSS =   0.000000    
                                         -------------------                                    --------------
                             TOTAL OUT =   3462.980                                 TOTAL OUT =   26.93959    

                        NET (IN - OUT) = -0.1147461E-01                        NET (IN - OUT) =  0.7629395E-05
                 DISCREPANCY (PERCENT) = -0.3313512E-03                 DISCREPANCY (PERCENT) =  0.2832038E-04
                                              FLOW ERR (QIN-QOUT-DV) = -0.9536743E-06 [L3/T]




 >>>>>>>>>>>>>>>>>>>>>>>>>>>>>>>>>>>>>>>>>>>>>>>>>>>>>>>FOR COMPONENT NO. 01<<<<<<<<<<<<<<<<<<<<<<<<<<<<<<<<<<<<<<<<<<<<<<<<<<<<<<<


                                            -------------------------------------------
                                                      TRANSPORT STEP NO.   10
                                            -------------------------------------------

 TOTAL ELAPSED TIME SINCE BEGINNING OF SIMULATION =   43200.00    D   
 .....................................................................

                     CUMULATIVE MASS BUDGETS AT END OF TRANSPORT STEP   10, TIME STEP    1, STRESS PERIOD    3
                     -----------------------------------------------------------------------------------------

                                                             IN                           OUT
                                                      ----------------             ----------------
                               CONSTANT CONCENTRATION:    0.000000                    0.000000    
                                        CONSTANT HEAD:    539.2335                   -299.4686    
                                               STREAM:    0.000000                   -239.7693    
                               MASS STOR (FLOW MODEL):   0.5161509E-02              -0.6986623E-07
                                MASS STORAGE (SOLUTE):    0.000000                    0.000000    
                            ---------------------------------------------------------------------------
                                              [TOTAL]:    539.2386     KG            -539.2379     KG  

                                                          NET (IN - OUT):   0.7324219E-03
                                                   DISCREPANCY (PERCENT):   0.1358253E-03
     2 CALLS TO GCG PACKAGE FOR TRANSPORT TIME STEP    11 IN FLOW TIME STEP     1 STRESS PERIOD     3
      2 TOTAL ITERATIONS
  MAXIMUM CONCENTRATION CHANGES FOR EACH ITERATION:
  MAX. CHANGE LAYER,ROW,COL MAX. CHANGE LAYER,ROW,COL MAX. CHANGE LAYER,ROW,COL MAX. CHANGE LAYER,ROW,COL MAX. CHANGE LAYER,ROW,COL
 ------------------------------------------------------------------------------------------------------------------------------------
    0.000     (  1,  1,  1)   0.000     (  1,  1,  1)


                     STREAM MASS BUDGETS AT END OF TRANSPORT STEP   11, TIME STEP    1, STRESS PERIOD    3 FOR COMPONENT   1
                     -------------------------------------------------------------------------------------------------------

                                         CUMULATIVE MASS [M]                                     MASS FOR THIS TIME STEP [M]
                                         -------------------                                    --------------
                      STREAM DEPLETION =   203.2896                          STREAM DEPLETION =   17.58521    
                      INFLOW TO STREAM =   3045.820                          INFLOW TO STREAM =   8.325000    
                          GW TO STREAM =   240.7683                              GW TO STREAM =  0.9990391    
                         PRECIPITATION =   0.000000                             PRECIPITATION =   0.000000    
                                RUNOFF =   0.000000                                    RUNOFF =   0.000000    
                CONSTANT CONCENTRATION =   0.000000                    CONSTANT CONCENTRATION =   0.000000    
                             MASS GAIN =   0.000000                                 MASS GAIN =   0.000000    
                                         -------------------                                    --------------
                              TOTAL IN =   3489.878                                  TOTAL IN =   26.90925    

                   STREAM ACCUMULATION =   1242.530                       STREAM ACCUMULATION =   17.52086    
                        STREAM OUTFLOW =   2247.360                            STREAM OUTFLOW =   9.388395    
                          STREAM TO GW =   0.000000                              STREAM TO GW =   0.000000    
                CONSTANT CONCENTRATION =   0.000000                    CONSTANT CONCENTRATION =   0.000000    
                           EVAPORATION =   0.000000                               EVAPORATION =   0.000000    
                             MASS LOSS =   0.000000                                 MASS LOSS =   0.000000    
                                         -------------------                                    --------------
                             TOTAL OUT =   3489.890                                 TOTAL OUT =   26.90926    

                        NET (IN - OUT) = -0.1147461E-01                        NET (IN - OUT) = -0.3814697E-05
                 DISCREPANCY (PERCENT) = -0.3287963E-03                 DISCREPANCY (PERCENT) = -0.1417615E-04
                                              FLOW ERR (QIN-QOUT-DV) = -0.9536743E-06 [L3/T]




 >>>>>>>>>>>>>>>>>>>>>>>>>>>>>>>>>>>>>>>>>>>>>>>>>>>>>>>FOR COMPONENT NO. 01<<<<<<<<<<<<<<<<<<<<<<<<<<<<<<<<<<<<<<<<<<<<<<<<<<<<<<<


                                            -------------------------------------------
                                                      TRANSPORT STEP NO.   11
                                            -------------------------------------------

 TOTAL ELAPSED TIME SINCE BEGINNING OF SIMULATION =   43380.00    D   
 .....................................................................

                     CUMULATIVE MASS BUDGETS AT END OF TRANSPORT STEP   11, TIME STEP    1, STRESS PERIOD    3
                     -----------------------------------------------------------------------------------------

                                                             IN                           OUT
                                                      ----------------             ----------------
                               CONSTANT CONCENTRATION:    0.000000                    0.000000    
                                        CONSTANT HEAD:    541.4803                   -300.7164    
                                               STREAM:    0.000000                   -240.7683    
                               MASS STOR (FLOW MODEL):   0.5161509E-02              -0.6986623E-07
                                MASS STORAGE (SOLUTE):    0.000000                    0.000000    
                            ---------------------------------------------------------------------------
                                              [TOTAL]:    541.4855     KG            -541.4847     KG  

                                                          NET (IN - OUT):   0.7324219E-03
                                                   DISCREPANCY (PERCENT):   0.1352617E-03
     2 CALLS TO GCG PACKAGE FOR TRANSPORT TIME STEP    12 IN FLOW TIME STEP     1 STRESS PERIOD     3
      2 TOTAL ITERATIONS
  MAXIMUM CONCENTRATION CHANGES FOR EACH ITERATION:
  MAX. CHANGE LAYER,ROW,COL MAX. CHANGE LAYER,ROW,COL MAX. CHANGE LAYER,ROW,COL MAX. CHANGE LAYER,ROW,COL MAX. CHANGE LAYER,ROW,COL
 ------------------------------------------------------------------------------------------------------------------------------------
    0.000     (  1,  1,  1)   0.000     (  1,  1,  1)


                     STREAM MASS BUDGETS AT END OF TRANSPORT STEP   12, TIME STEP    1, STRESS PERIOD    3 FOR COMPONENT   1
                     -------------------------------------------------------------------------------------------------------

                                         CUMULATIVE MASS [M]                                     MASS FOR THIS TIME STEP [M]
                                         -------------------                                    --------------
                      STREAM DEPLETION =   220.8423                          STREAM DEPLETION =   17.55276    
                      INFLOW TO STREAM =   3054.145                          INFLOW TO STREAM =   8.325000    
                          GW TO STREAM =   241.7674                              GW TO STREAM =  0.9990391    
                         PRECIPITATION =   0.000000                             PRECIPITATION =   0.000000    
                                RUNOFF =   0.000000                                    RUNOFF =   0.000000    
                CONSTANT CONCENTRATION =   0.000000                    CONSTANT CONCENTRATION =   0.000000    
                             MASS GAIN =   0.000000                                 MASS GAIN =   0.000000    
                                         -------------------                                    --------------
                              TOTAL IN =   3516.755                                  TOTAL IN =   26.87680    

                   STREAM ACCUMULATION =   1260.001                       STREAM ACCUMULATION =   17.47067    
                        STREAM OUTFLOW =   2256.766                            STREAM OUTFLOW =   9.406135    
                          STREAM TO GW =   0.000000                              STREAM TO GW =   0.000000    
                CONSTANT CONCENTRATION =   0.000000                    CONSTANT CONCENTRATION =   0.000000    
                           EVAPORATION =   0.000000                               EVAPORATION =   0.000000    
                             MASS LOSS =   0.000000                                 MASS LOSS =   0.000000    
                                         -------------------                                    --------------
                             TOTAL OUT =   3516.767                                 TOTAL OUT =   26.87680    

                        NET (IN - OUT) = -0.1171875E-01                        NET (IN - OUT) =  0.3814697E-05
                 DISCREPANCY (PERCENT) = -0.3332257E-03                 DISCREPANCY (PERCENT) =  0.1419327E-04
                                              FLOW ERR (QIN-QOUT-DV) = -0.9536743E-06 [L3/T]




 >>>>>>>>>>>>>>>>>>>>>>>>>>>>>>>>>>>>>>>>>>>>>>>>>>>>>>>FOR COMPONENT NO. 01<<<<<<<<<<<<<<<<<<<<<<<<<<<<<<<<<<<<<<<<<<<<<<<<<<<<<<<


                                            -------------------------------------------
                                                      TRANSPORT STEP NO.   12
                                            -------------------------------------------

 TOTAL ELAPSED TIME SINCE BEGINNING OF SIMULATION =   43560.00    D   
 .....................................................................

                     CUMULATIVE MASS BUDGETS AT END OF TRANSPORT STEP   12, TIME STEP    1, STRESS PERIOD    3
                     -----------------------------------------------------------------------------------------

                                                             IN                           OUT
                                                      ----------------             ----------------
                               CONSTANT CONCENTRATION:    0.000000                    0.000000    
                                        CONSTANT HEAD:    543.7271                   -301.9642    
                                               STREAM:    0.000000                   -241.7674    
                               MASS STOR (FLOW MODEL):   0.5161509E-02              -0.6986623E-07
                                MASS STORAGE (SOLUTE):    0.000000                    0.000000    
                            ---------------------------------------------------------------------------
                                              [TOTAL]:    543.7323     KG            -543.7316     KG  

                                                          NET (IN - OUT):   0.7324219E-03
                                                   DISCREPANCY (PERCENT):   0.1347028E-03
     2 CALLS TO GCG PACKAGE FOR TRANSPORT TIME STEP    13 IN FLOW TIME STEP     1 STRESS PERIOD     3
      2 TOTAL ITERATIONS
  MAXIMUM CONCENTRATION CHANGES FOR EACH ITERATION:
  MAX. CHANGE LAYER,ROW,COL MAX. CHANGE LAYER,ROW,COL MAX. CHANGE LAYER,ROW,COL MAX. CHANGE LAYER,ROW,COL MAX. CHANGE LAYER,ROW,COL
 ------------------------------------------------------------------------------------------------------------------------------------
    0.000     (  1,  1,  1)   0.000     (  1,  1,  1)


                     STREAM MASS BUDGETS AT END OF TRANSPORT STEP   13, TIME STEP    1, STRESS PERIOD    3 FOR COMPONENT   1
                     -------------------------------------------------------------------------------------------------------

                                         CUMULATIVE MASS [M]                                     MASS FOR THIS TIME STEP [M]
                                         -------------------                                    --------------
                      STREAM DEPLETION =   238.3676                          STREAM DEPLETION =   17.52526    
                      INFLOW TO STREAM =   3062.470                          INFLOW TO STREAM =   8.325000    
                          GW TO STREAM =   242.7664                              GW TO STREAM =  0.9990391    
                         PRECIPITATION =   0.000000                             PRECIPITATION =   0.000000    
                                RUNOFF =   0.000000                                    RUNOFF =   0.000000    
                CONSTANT CONCENTRATION =   0.000000                    CONSTANT CONCENTRATION =   0.000000    
                             MASS GAIN =   0.000000                                 MASS GAIN =   0.000000    
                                         -------------------                                    --------------
                              TOTAL IN =   3543.604                                  TOTAL IN =   26.84930    

                   STREAM ACCUMULATION =   1277.422                       STREAM ACCUMULATION =   17.42154    
                        STREAM OUTFLOW =   2266.194                            STREAM OUTFLOW =   9.427754    
                          STREAM TO GW =   0.000000                              STREAM TO GW =   0.000000    
                CONSTANT CONCENTRATION =   0.000000                    CONSTANT CONCENTRATION =   0.000000    
                           EVAPORATION =   0.000000                               EVAPORATION =   0.000000    
                             MASS LOSS =   0.000000                                 MASS LOSS =   0.000000    
                                         -------------------                                    --------------
                             TOTAL OUT =   3543.616                                 TOTAL OUT =   26.84929    

                        NET (IN - OUT) = -0.1171875E-01                        NET (IN - OUT) =  0.1525879E-04
                 DISCREPANCY (PERCENT) = -0.3307009E-03                 DISCREPANCY (PERCENT) =  0.5683124E-04
                                              FLOW ERR (QIN-QOUT-DV) = -0.9536743E-06 [L3/T]




 >>>>>>>>>>>>>>>>>>>>>>>>>>>>>>>>>>>>>>>>>>>>>>>>>>>>>>>FOR COMPONENT NO. 01<<<<<<<<<<<<<<<<<<<<<<<<<<<<<<<<<<<<<<<<<<<<<<<<<<<<<<<


                                            -------------------------------------------
                                                      TRANSPORT STEP NO.   13
                                            -------------------------------------------

 TOTAL ELAPSED TIME SINCE BEGINNING OF SIMULATION =   43740.00    D   
 .....................................................................

                     CUMULATIVE MASS BUDGETS AT END OF TRANSPORT STEP   13, TIME STEP    1, STRESS PERIOD    3
                     -----------------------------------------------------------------------------------------

                                                             IN                           OUT
                                                      ----------------             ----------------
                               CONSTANT CONCENTRATION:    0.000000                    0.000000    
                                        CONSTANT HEAD:    545.9739                   -303.2119    
                                               STREAM:    0.000000                   -242.7664    
                               MASS STOR (FLOW MODEL):   0.5161509E-02              -0.6986623E-07
                                MASS STORAGE (SOLUTE):    0.000000                    0.000000    
                            ---------------------------------------------------------------------------
                                              [TOTAL]:    545.9791     KG            -545.9784     KG  

                                                          NET (IN - OUT):   0.7324219E-03
                                                   DISCREPANCY (PERCENT):   0.1341484E-03
     2 CALLS TO GCG PACKAGE FOR TRANSPORT TIME STEP    14 IN FLOW TIME STEP     1 STRESS PERIOD     3
      2 TOTAL ITERATIONS
  MAXIMUM CONCENTRATION CHANGES FOR EACH ITERATION:
  MAX. CHANGE LAYER,ROW,COL MAX. CHANGE LAYER,ROW,COL MAX. CHANGE LAYER,ROW,COL MAX. CHANGE LAYER,ROW,COL MAX. CHANGE LAYER,ROW,COL
 ------------------------------------------------------------------------------------------------------------------------------------
    0.000     (  1,  1,  1)   0.000     (  1,  1,  1)


                     STREAM MASS BUDGETS AT END OF TRANSPORT STEP   14, TIME STEP    1, STRESS PERIOD    3 FOR COMPONENT   1
                     -------------------------------------------------------------------------------------------------------

                                         CUMULATIVE MASS [M]                                     MASS FOR THIS TIME STEP [M]
                                         -------------------                                    --------------
                      STREAM DEPLETION =   255.8671                          STREAM DEPLETION =   17.49949    
                      INFLOW TO STREAM =   3070.795                          INFLOW TO STREAM =   8.325000    
                          GW TO STREAM =   243.7655                              GW TO STREAM =  0.9990391    
                         PRECIPITATION =   0.000000                             PRECIPITATION =   0.000000    
                                RUNOFF =   0.000000                                    RUNOFF =   0.000000    
                CONSTANT CONCENTRATION =   0.000000                    CONSTANT CONCENTRATION =   0.000000    
                             MASS GAIN =   0.000000                                 MASS GAIN =   0.000000    
                                         -------------------                                    --------------
                              TOTAL IN =   3570.428                                  TOTAL IN =   26.82352    

                   STREAM ACCUMULATION =   1294.792                       STREAM ACCUMULATION =   17.36967    
                        STREAM OUTFLOW =   2275.647                            STREAM OUTFLOW =   9.453855    
                          STREAM TO GW =   0.000000                              STREAM TO GW =   0.000000    
                CONSTANT CONCENTRATION =   0.000000                    CONSTANT CONCENTRATION =   0.000000    
                           EVAPORATION =   0.000000                               EVAPORATION =   0.000000    
                             MASS LOSS =   0.000000                                 MASS LOSS =   0.000000    
                                         -------------------                                    --------------
                             TOTAL OUT =   3570.439                                 TOTAL OUT =   26.82352    

                        NET (IN - OUT) = -0.1171875E-01                        NET (IN - OUT) =  0.3814697E-05
                 DISCREPANCY (PERCENT) = -0.3282164E-03                 DISCREPANCY (PERCENT) =  0.1422146E-04
                                              FLOW ERR (QIN-QOUT-DV) = -0.9536743E-06 [L3/T]




 >>>>>>>>>>>>>>>>>>>>>>>>>>>>>>>>>>>>>>>>>>>>>>>>>>>>>>>FOR COMPONENT NO. 01<<<<<<<<<<<<<<<<<<<<<<<<<<<<<<<<<<<<<<<<<<<<<<<<<<<<<<<


                                            -------------------------------------------
                                                      TRANSPORT STEP NO.   14
                                            -------------------------------------------

 TOTAL ELAPSED TIME SINCE BEGINNING OF SIMULATION =   43920.00    D   
 .....................................................................

                     CUMULATIVE MASS BUDGETS AT END OF TRANSPORT STEP   14, TIME STEP    1, STRESS PERIOD    3
                     -----------------------------------------------------------------------------------------

                                                             IN                           OUT
                                                      ----------------             ----------------
                               CONSTANT CONCENTRATION:    0.000000                    0.000000    
                                        CONSTANT HEAD:    548.2208                   -304.4597    
                                               STREAM:    0.000000                   -243.7655    
                               MASS STOR (FLOW MODEL):   0.5161509E-02              -0.6986623E-07
                                MASS STORAGE (SOLUTE):    0.000000                    0.000000    
                            ---------------------------------------------------------------------------
                                              [TOTAL]:    548.2260     KG            -548.2252     KG  

                                                          NET (IN - OUT):   0.7934570E-03
                                                   DISCREPANCY (PERCENT):   0.1447319E-03
     2 CALLS TO GCG PACKAGE FOR TRANSPORT TIME STEP    15 IN FLOW TIME STEP     1 STRESS PERIOD     3
      2 TOTAL ITERATIONS
  MAXIMUM CONCENTRATION CHANGES FOR EACH ITERATION:
  MAX. CHANGE LAYER,ROW,COL MAX. CHANGE LAYER,ROW,COL MAX. CHANGE LAYER,ROW,COL MAX. CHANGE LAYER,ROW,COL MAX. CHANGE LAYER,ROW,COL
 ------------------------------------------------------------------------------------------------------------------------------------
    0.000     (  1,  1,  1)   0.000     (  1,  1,  1)


                     STREAM MASS BUDGETS AT END OF TRANSPORT STEP   15, TIME STEP    1, STRESS PERIOD    3 FOR COMPONENT   1
                     -------------------------------------------------------------------------------------------------------

                                         CUMULATIVE MASS [M]                                     MASS FOR THIS TIME STEP [M]
                                         -------------------                                    --------------
                      STREAM DEPLETION =   273.3466                          STREAM DEPLETION =   17.47948    
                      INFLOW TO STREAM =   3079.120                          INFLOW TO STREAM =   8.325000    
                          GW TO STREAM =   244.7645                              GW TO STREAM =  0.9990391    
                         PRECIPITATION =   0.000000                             PRECIPITATION =   0.000000    
                                RUNOFF =   0.000000                                    RUNOFF =   0.000000    
                CONSTANT CONCENTRATION =   0.000000                    CONSTANT CONCENTRATION =   0.000000    
                             MASS GAIN =   0.000000                                 MASS GAIN =   0.000000    
                                         -------------------                                    --------------
                              TOTAL IN =   3597.231                                  TOTAL IN =   26.80352    

                   STREAM ACCUMULATION =   1312.110                       STREAM ACCUMULATION =   17.31845    
                        STREAM OUTFLOW =   2285.133                            STREAM OUTFLOW =   9.485073    
                          STREAM TO GW =   0.000000                              STREAM TO GW =   0.000000    
                CONSTANT CONCENTRATION =   0.000000                    CONSTANT CONCENTRATION =   0.000000    
                           EVAPORATION =   0.000000                               EVAPORATION =   0.000000    
                             MASS LOSS =   0.000000                                 MASS LOSS =   0.000000    
                                         -------------------                                    --------------
                             TOTAL OUT =   3597.243                                 TOTAL OUT =   26.80352    

                        NET (IN - OUT) = -0.1196289E-01                        NET (IN - OUT) =  0.1907349E-05
                 DISCREPANCY (PERCENT) = -0.3325577E-03                 DISCREPANCY (PERCENT) =  0.7116037E-05
                                              FLOW ERR (QIN-QOUT-DV) = -0.9536743E-06 [L3/T]




 >>>>>>>>>>>>>>>>>>>>>>>>>>>>>>>>>>>>>>>>>>>>>>>>>>>>>>>FOR COMPONENT NO. 01<<<<<<<<<<<<<<<<<<<<<<<<<<<<<<<<<<<<<<<<<<<<<<<<<<<<<<<


                                            -------------------------------------------
                                                      TRANSPORT STEP NO.   15
                                            -------------------------------------------

 TOTAL ELAPSED TIME SINCE BEGINNING OF SIMULATION =   44100.00    D   
 .....................................................................

                     CUMULATIVE MASS BUDGETS AT END OF TRANSPORT STEP   15, TIME STEP    1, STRESS PERIOD    3
                     -----------------------------------------------------------------------------------------

                                                             IN                           OUT
                                                      ----------------             ----------------
                               CONSTANT CONCENTRATION:    0.000000                    0.000000    
                                        CONSTANT HEAD:    550.4676                   -305.7075    
                                               STREAM:    0.000000                   -244.7645    
                               MASS STOR (FLOW MODEL):   0.5161509E-02              -0.6986623E-07
                                MASS STORAGE (SOLUTE):    0.000000                    0.000000    
                            ---------------------------------------------------------------------------
                                              [TOTAL]:    550.4728     KG            -550.4720     KG  

                                                          NET (IN - OUT):   0.7934570E-03
                                                   DISCREPANCY (PERCENT):   0.1441411E-03
     2 CALLS TO GCG PACKAGE FOR TRANSPORT TIME STEP    16 IN FLOW TIME STEP     1 STRESS PERIOD     3
      2 TOTAL ITERATIONS
  MAXIMUM CONCENTRATION CHANGES FOR EACH ITERATION:
  MAX. CHANGE LAYER,ROW,COL MAX. CHANGE LAYER,ROW,COL MAX. CHANGE LAYER,ROW,COL MAX. CHANGE LAYER,ROW,COL MAX. CHANGE LAYER,ROW,COL
 ------------------------------------------------------------------------------------------------------------------------------------
    0.000     (  1,  1,  1)   0.000     (  1,  1,  1)


                     STREAM MASS BUDGETS AT END OF TRANSPORT STEP   16, TIME STEP    1, STRESS PERIOD    3 FOR COMPONENT   1
                     -------------------------------------------------------------------------------------------------------

                                         CUMULATIVE MASS [M]                                     MASS FOR THIS TIME STEP [M]
                                         -------------------                                    --------------
                      STREAM DEPLETION =   290.8102                          STREAM DEPLETION =   17.46358    
                      INFLOW TO STREAM =   3087.445                          INFLOW TO STREAM =   8.325000    
                          GW TO STREAM =   245.7635                              GW TO STREAM =  0.9990391    
                         PRECIPITATION =   0.000000                             PRECIPITATION =   0.000000    
                                RUNOFF =   0.000000                                    RUNOFF =   0.000000    
                CONSTANT CONCENTRATION =   0.000000                    CONSTANT CONCENTRATION =   0.000000    
                             MASS GAIN =   0.000000                                 MASS GAIN =   0.000000    
                                         -------------------                                    --------------
                              TOTAL IN =   3624.019                                  TOTAL IN =   26.78762    

                   STREAM ACCUMULATION =   1329.376                       STREAM ACCUMULATION =   17.26554    
                        STREAM OUTFLOW =   2294.655                            STREAM OUTFLOW =   9.522084    
                          STREAM TO GW =   0.000000                              STREAM TO GW =   0.000000    
                CONSTANT CONCENTRATION =   0.000000                    CONSTANT CONCENTRATION =   0.000000    
                           EVAPORATION =   0.000000                               EVAPORATION =   0.000000    
                             MASS LOSS =   0.000000                                 MASS LOSS =   0.000000    
                                         -------------------                                    --------------
                             TOTAL OUT =   3624.031                                 TOTAL OUT =   26.78762    

                        NET (IN - OUT) = -0.1171875E-01                        NET (IN - OUT) =   0.000000    
                 DISCREPANCY (PERCENT) = -0.3233629E-03                 DISCREPANCY (PERCENT) =   0.000000    
                                              FLOW ERR (QIN-QOUT-DV) = -0.9536743E-06 [L3/T]




 >>>>>>>>>>>>>>>>>>>>>>>>>>>>>>>>>>>>>>>>>>>>>>>>>>>>>>>FOR COMPONENT NO. 01<<<<<<<<<<<<<<<<<<<<<<<<<<<<<<<<<<<<<<<<<<<<<<<<<<<<<<<


                                            -------------------------------------------
                                                      TRANSPORT STEP NO.   16
                                            -------------------------------------------

 TOTAL ELAPSED TIME SINCE BEGINNING OF SIMULATION =   44280.00    D   
 .....................................................................

                     CUMULATIVE MASS BUDGETS AT END OF TRANSPORT STEP   16, TIME STEP    1, STRESS PERIOD    3
                     -----------------------------------------------------------------------------------------

                                                             IN                           OUT
                                                      ----------------             ----------------
                               CONSTANT CONCENTRATION:    0.000000                    0.000000    
                                        CONSTANT HEAD:    552.7144                   -306.9553    
                                               STREAM:    0.000000                   -245.7635    
                               MASS STOR (FLOW MODEL):   0.5161509E-02              -0.6986623E-07
                                MASS STORAGE (SOLUTE):    0.000000                    0.000000    
                            ---------------------------------------------------------------------------
                                              [TOTAL]:    552.7196     KG            -552.7188     KG  

                                                          NET (IN - OUT):   0.7934570E-03
                                                   DISCREPANCY (PERCENT):   0.1435552E-03
     2 CALLS TO GCG PACKAGE FOR TRANSPORT TIME STEP    17 IN FLOW TIME STEP     1 STRESS PERIOD     3
      2 TOTAL ITERATIONS
  MAXIMUM CONCENTRATION CHANGES FOR EACH ITERATION:
  MAX. CHANGE LAYER,ROW,COL MAX. CHANGE LAYER,ROW,COL MAX. CHANGE LAYER,ROW,COL MAX. CHANGE LAYER,ROW,COL MAX. CHANGE LAYER,ROW,COL
 ------------------------------------------------------------------------------------------------------------------------------------
    0.000     (  1,  1,  1)   0.000     (  1,  1,  1)


                     STREAM MASS BUDGETS AT END OF TRANSPORT STEP   17, TIME STEP    1, STRESS PERIOD    3 FOR COMPONENT   1
                     -------------------------------------------------------------------------------------------------------

                                         CUMULATIVE MASS [M]                                     MASS FOR THIS TIME STEP [M]
                                         -------------------                                    --------------
                      STREAM DEPLETION =   308.2581                          STREAM DEPLETION =   17.44790    
                      INFLOW TO STREAM =   3095.770                          INFLOW TO STREAM =   8.325000    
                          GW TO STREAM =   246.7626                              GW TO STREAM =  0.9990391    
                         PRECIPITATION =   0.000000                             PRECIPITATION =   0.000000    
                                RUNOFF =   0.000000                                    RUNOFF =   0.000000    
                CONSTANT CONCENTRATION =   0.000000                    CONSTANT CONCENTRATION =   0.000000    
                             MASS GAIN =   0.000000                                 MASS GAIN =   0.000000    
                                         -------------------                                    --------------
                              TOTAL IN =   3650.791                                  TOTAL IN =   26.77194    

                   STREAM ACCUMULATION =   1346.582                       STREAM ACCUMULATION =   17.20636    
                        STREAM OUTFLOW =   2304.220                            STREAM OUTFLOW =   9.565591    
                          STREAM TO GW =   0.000000                              STREAM TO GW =   0.000000    
                CONSTANT CONCENTRATION =   0.000000                    CONSTANT CONCENTRATION =   0.000000    
                           EVAPORATION =   0.000000                               EVAPORATION =   0.000000    
                             MASS LOSS =   0.000000                                 MASS LOSS =   0.000000    
                                         -------------------                                    --------------
                             TOTAL OUT =   3650.802                                 TOTAL OUT =   26.77195    

                        NET (IN - OUT) = -0.1196289E-01                        NET (IN - OUT) = -0.3814697E-05
                 DISCREPANCY (PERCENT) = -0.3276789E-03                 DISCREPANCY (PERCENT) = -0.1424886E-04
                                              FLOW ERR (QIN-QOUT-DV) = -0.9536743E-06 [L3/T]




 >>>>>>>>>>>>>>>>>>>>>>>>>>>>>>>>>>>>>>>>>>>>>>>>>>>>>>>FOR COMPONENT NO. 01<<<<<<<<<<<<<<<<<<<<<<<<<<<<<<<<<<<<<<<<<<<<<<<<<<<<<<<


                                            -------------------------------------------
                                                      TRANSPORT STEP NO.   17
                                            -------------------------------------------

 TOTAL ELAPSED TIME SINCE BEGINNING OF SIMULATION =   44460.00    D   
 .....................................................................

                     CUMULATIVE MASS BUDGETS AT END OF TRANSPORT STEP   17, TIME STEP    1, STRESS PERIOD    3
                     -----------------------------------------------------------------------------------------

                                                             IN                           OUT
                                                      ----------------             ----------------
                               CONSTANT CONCENTRATION:    0.000000                    0.000000    
                                        CONSTANT HEAD:    554.9612                   -308.2030    
                                               STREAM:    0.000000                   -246.7626    
                               MASS STOR (FLOW MODEL):   0.5161509E-02              -0.6986623E-07
                                MASS STORAGE (SOLUTE):    0.000000                    0.000000    
                            ---------------------------------------------------------------------------
                                              [TOTAL]:    554.9664     KG            -554.9656     KG  

                                                          NET (IN - OUT):   0.8544922E-03
                                                   DISCREPANCY (PERCENT):   0.1539720E-03
     2 CALLS TO GCG PACKAGE FOR TRANSPORT TIME STEP    18 IN FLOW TIME STEP     1 STRESS PERIOD     3
      2 TOTAL ITERATIONS
  MAXIMUM CONCENTRATION CHANGES FOR EACH ITERATION:
  MAX. CHANGE LAYER,ROW,COL MAX. CHANGE LAYER,ROW,COL MAX. CHANGE LAYER,ROW,COL MAX. CHANGE LAYER,ROW,COL MAX. CHANGE LAYER,ROW,COL
 ------------------------------------------------------------------------------------------------------------------------------------
    0.000     (  1,  1,  1)   0.000     (  1,  1,  1)


                     STREAM MASS BUDGETS AT END OF TRANSPORT STEP   18, TIME STEP    1, STRESS PERIOD    3 FOR COMPONENT   1
                     -------------------------------------------------------------------------------------------------------

                                         CUMULATIVE MASS [M]                                     MASS FOR THIS TIME STEP [M]
                                         -------------------                                    --------------
                      STREAM DEPLETION =   325.6907                          STREAM DEPLETION =   17.43269    
                      INFLOW TO STREAM =   3104.095                          INFLOW TO STREAM =   8.325000    
                          GW TO STREAM =   247.7616                              GW TO STREAM =  0.9990391    
                         PRECIPITATION =   0.000000                             PRECIPITATION =   0.000000    
                                RUNOFF =   0.000000                                    RUNOFF =   0.000000    
                CONSTANT CONCENTRATION =   0.000000                    CONSTANT CONCENTRATION =   0.000000    
                             MASS GAIN =   0.000000                                 MASS GAIN =   0.000000    
                                         -------------------                                    --------------
                              TOTAL IN =   3677.547                                  TOTAL IN =   26.75673    

                   STREAM ACCUMULATION =   1363.723                       STREAM ACCUMULATION =   17.14041    
                        STREAM OUTFLOW =   2313.836                            STREAM OUTFLOW =   9.616311    
                          STREAM TO GW =   0.000000                              STREAM TO GW =   0.000000    
                CONSTANT CONCENTRATION =   0.000000                    CONSTANT CONCENTRATION =   0.000000    
                           EVAPORATION =   0.000000                               EVAPORATION =   0.000000    
                             MASS LOSS =   0.000000                                 MASS LOSS =   0.000000    
                                         -------------------                                    --------------
                             TOTAL OUT =   3677.559                                 TOTAL OUT =   26.75672    

                        NET (IN - OUT) = -0.1171875E-01                        NET (IN - OUT) =  0.3814697E-05
                 DISCREPANCY (PERCENT) = -0.3186562E-03                 DISCREPANCY (PERCENT) =  0.1425697E-04
                                              FLOW ERR (QIN-QOUT-DV) = -0.9536743E-06 [L3/T]




 >>>>>>>>>>>>>>>>>>>>>>>>>>>>>>>>>>>>>>>>>>>>>>>>>>>>>>>FOR COMPONENT NO. 01<<<<<<<<<<<<<<<<<<<<<<<<<<<<<<<<<<<<<<<<<<<<<<<<<<<<<<<


                                            -------------------------------------------
                                                      TRANSPORT STEP NO.   18
                                            -------------------------------------------

 TOTAL ELAPSED TIME SINCE BEGINNING OF SIMULATION =   44640.00    D   
 .....................................................................

                     CUMULATIVE MASS BUDGETS AT END OF TRANSPORT STEP   18, TIME STEP    1, STRESS PERIOD    3
                     -----------------------------------------------------------------------------------------

                                                             IN                           OUT
                                                      ----------------             ----------------
                               CONSTANT CONCENTRATION:    0.000000                    0.000000    
                                        CONSTANT HEAD:    557.2081                   -309.4508    
                                               STREAM:    0.000000                   -247.7616    
                               MASS STOR (FLOW MODEL):   0.5161509E-02              -0.6986623E-07
                                MASS STORAGE (SOLUTE):    0.000000                    0.000000    
                            ---------------------------------------------------------------------------
                                              [TOTAL]:    557.2133     KG            -557.2124     KG  

                                                          NET (IN - OUT):   0.8544922E-03
                                                   DISCREPANCY (PERCENT):   0.1533511E-03
     2 CALLS TO GCG PACKAGE FOR TRANSPORT TIME STEP    19 IN FLOW TIME STEP     1 STRESS PERIOD     3
      2 TOTAL ITERATIONS
  MAXIMUM CONCENTRATION CHANGES FOR EACH ITERATION:
  MAX. CHANGE LAYER,ROW,COL MAX. CHANGE LAYER,ROW,COL MAX. CHANGE LAYER,ROW,COL MAX. CHANGE LAYER,ROW,COL MAX. CHANGE LAYER,ROW,COL
 ------------------------------------------------------------------------------------------------------------------------------------
    0.000     (  1,  1,  1)   0.000     (  1,  1,  1)


                     STREAM MASS BUDGETS AT END OF TRANSPORT STEP   19, TIME STEP    1, STRESS PERIOD    3 FOR COMPONENT   1
                     -------------------------------------------------------------------------------------------------------

                                         CUMULATIVE MASS [M]                                     MASS FOR THIS TIME STEP [M]
                                         -------------------                                    --------------
                      STREAM DEPLETION =   343.1096                          STREAM DEPLETION =   17.41893    
                      INFLOW TO STREAM =   3112.420                          INFLOW TO STREAM =   8.325000    
                          GW TO STREAM =   248.7607                              GW TO STREAM =  0.9990391    
                         PRECIPITATION =   0.000000                             PRECIPITATION =   0.000000    
                                RUNOFF =   0.000000                                    RUNOFF =   0.000000    
                CONSTANT CONCENTRATION =   0.000000                    CONSTANT CONCENTRATION =   0.000000    
                             MASS GAIN =   0.000000                                 MASS GAIN =   0.000000    
                                         -------------------                                    --------------
                              TOTAL IN =   3704.290                                  TOTAL IN =   26.74297    

                   STREAM ACCUMULATION =   1380.791                       STREAM ACCUMULATION =   17.06799    
                        STREAM OUTFLOW =   2323.511                            STREAM OUTFLOW =   9.674977    
                          STREAM TO GW =   0.000000                              STREAM TO GW =   0.000000    
                CONSTANT CONCENTRATION =   0.000000                    CONSTANT CONCENTRATION =   0.000000    
                           EVAPORATION =   0.000000                               EVAPORATION =   0.000000    
                             MASS LOSS =   0.000000                                 MASS LOSS =   0.000000    
                                         -------------------                                    --------------
                             TOTAL OUT =   3704.302                                 TOTAL OUT =   26.74297    

                        NET (IN - OUT) = -0.1196289E-01                        NET (IN - OUT) = -0.3814697E-05
                 DISCREPANCY (PERCENT) = -0.3229464E-03                 DISCREPANCY (PERCENT) = -0.1426430E-04
                                              FLOW ERR (QIN-QOUT-DV) = -0.9536743E-06 [L3/T]




 >>>>>>>>>>>>>>>>>>>>>>>>>>>>>>>>>>>>>>>>>>>>>>>>>>>>>>>FOR COMPONENT NO. 01<<<<<<<<<<<<<<<<<<<<<<<<<<<<<<<<<<<<<<<<<<<<<<<<<<<<<<<


                                            -------------------------------------------
                                                      TRANSPORT STEP NO.   19
                                            -------------------------------------------

 TOTAL ELAPSED TIME SINCE BEGINNING OF SIMULATION =   44820.00    D   
 .....................................................................

                     CUMULATIVE MASS BUDGETS AT END OF TRANSPORT STEP   19, TIME STEP    1, STRESS PERIOD    3
                     -----------------------------------------------------------------------------------------

                                                             IN                           OUT
                                                      ----------------             ----------------
                               CONSTANT CONCENTRATION:    0.000000                    0.000000    
                                        CONSTANT HEAD:    559.4549                   -310.6986    
                                               STREAM:    0.000000                   -248.7607    
                               MASS STOR (FLOW MODEL):   0.5161509E-02              -0.6986623E-07
                                MASS STORAGE (SOLUTE):    0.000000                    0.000000    
                            ---------------------------------------------------------------------------
                                              [TOTAL]:    559.4601     KG            -559.4592     KG  

                                                          NET (IN - OUT):   0.8544922E-03
                                                   DISCREPANCY (PERCENT):   0.1527353E-03
     2 CALLS TO GCG PACKAGE FOR TRANSPORT TIME STEP    20 IN FLOW TIME STEP     1 STRESS PERIOD     3
      2 TOTAL ITERATIONS
  MAXIMUM CONCENTRATION CHANGES FOR EACH ITERATION:
  MAX. CHANGE LAYER,ROW,COL MAX. CHANGE LAYER,ROW,COL MAX. CHANGE LAYER,ROW,COL MAX. CHANGE LAYER,ROW,COL MAX. CHANGE LAYER,ROW,COL
 ------------------------------------------------------------------------------------------------------------------------------------
    0.000     (  1,  1,  1)   0.000     (  1,  1,  1)


                     STREAM MASS BUDGETS AT END OF TRANSPORT STEP   20, TIME STEP    1, STRESS PERIOD    3 FOR COMPONENT   1
                     -------------------------------------------------------------------------------------------------------

                                         CUMULATIVE MASS [M]                                     MASS FOR THIS TIME STEP [M]
                                         -------------------                                    --------------
                      STREAM DEPLETION =   360.5157                          STREAM DEPLETION =   17.40610    
                      INFLOW TO STREAM =   3120.745                          INFLOW TO STREAM =   8.325000    
                          GW TO STREAM =   249.7597                              GW TO STREAM =  0.9990391    
                         PRECIPITATION =   0.000000                             PRECIPITATION =   0.000000    
                                RUNOFF =   0.000000                                    RUNOFF =   0.000000    
                CONSTANT CONCENTRATION =   0.000000                    CONSTANT CONCENTRATION =   0.000000    
                             MASS GAIN =   0.000000                                 MASS GAIN =   0.000000    
                                         -------------------                                    --------------
                              TOTAL IN =   3731.020                                  TOTAL IN =   26.73014    

                   STREAM ACCUMULATION =   1397.778                       STREAM ACCUMULATION =   16.98783    
                        STREAM OUTFLOW =   2333.254                            STREAM OUTFLOW =   9.742315    
                          STREAM TO GW =   0.000000                              STREAM TO GW =   0.000000    
                CONSTANT CONCENTRATION =   0.000000                    CONSTANT CONCENTRATION =   0.000000    
                           EVAPORATION =   0.000000                               EVAPORATION =   0.000000    
                             MASS LOSS =   0.000000                                 MASS LOSS =   0.000000    
                                         -------------------                                    --------------
                             TOTAL OUT =   3731.032                                 TOTAL OUT =   26.73015    

                        NET (IN - OUT) = -0.1196289E-01                        NET (IN - OUT) = -0.9536743E-05
                 DISCREPANCY (PERCENT) = -0.3206327E-03                 DISCREPANCY (PERCENT) = -0.3567786E-04
                                              FLOW ERR (QIN-QOUT-DV) = -0.9536743E-06 [L3/T]




 >>>>>>>>>>>>>>>>>>>>>>>>>>>>>>>>>>>>>>>>>>>>>>>>>>>>>>>FOR COMPONENT NO. 01<<<<<<<<<<<<<<<<<<<<<<<<<<<<<<<<<<<<<<<<<<<<<<<<<<<<<<<


                                            -------------------------------------------
                                                      TRANSPORT STEP NO.   20
                                            -------------------------------------------

 TOTAL ELAPSED TIME SINCE BEGINNING OF SIMULATION =   45000.00    D   
 .....................................................................

                     CUMULATIVE MASS BUDGETS AT END OF TRANSPORT STEP   20, TIME STEP    1, STRESS PERIOD    3
                     -----------------------------------------------------------------------------------------

                                                             IN                           OUT
                                                      ----------------             ----------------
                               CONSTANT CONCENTRATION:    0.000000                    0.000000    
                                        CONSTANT HEAD:    561.7017                   -311.9464    
                                               STREAM:    0.000000                   -249.7597    
                               MASS STOR (FLOW MODEL):   0.5161509E-02              -0.6986623E-07
                                MASS STORAGE (SOLUTE):    0.000000                    0.000000    
                            ---------------------------------------------------------------------------
                                              [TOTAL]:    561.7069     KG            -561.7061     KG  

                                                          NET (IN - OUT):   0.8544922E-03
                                                   DISCREPANCY (PERCENT):   0.1521243E-03
     2 CALLS TO GCG PACKAGE FOR TRANSPORT TIME STEP    21 IN FLOW TIME STEP     1 STRESS PERIOD     3
      2 TOTAL ITERATIONS
  MAXIMUM CONCENTRATION CHANGES FOR EACH ITERATION:
  MAX. CHANGE LAYER,ROW,COL MAX. CHANGE LAYER,ROW,COL MAX. CHANGE LAYER,ROW,COL MAX. CHANGE LAYER,ROW,COL MAX. CHANGE LAYER,ROW,COL
 ------------------------------------------------------------------------------------------------------------------------------------
    0.000     (  1,  1,  1)   0.000     (  1,  1,  1)


                     STREAM MASS BUDGETS AT END OF TRANSPORT STEP   21, TIME STEP    1, STRESS PERIOD    3 FOR COMPONENT   1
                     -------------------------------------------------------------------------------------------------------

                                         CUMULATIVE MASS [M]                                     MASS FOR THIS TIME STEP [M]
                                         -------------------                                    --------------
                      STREAM DEPLETION =   377.9091                          STREAM DEPLETION =   17.39340    
                      INFLOW TO STREAM =   3129.070                          INFLOW TO STREAM =   8.325000    
                          GW TO STREAM =   250.7587                              GW TO STREAM =  0.9990391    
                         PRECIPITATION =   0.000000                             PRECIPITATION =   0.000000    
                                RUNOFF =   0.000000                                    RUNOFF =   0.000000    
                CONSTANT CONCENTRATION =   0.000000                    CONSTANT CONCENTRATION =   0.000000    
                             MASS GAIN =   0.000000                                 MASS GAIN =   0.000000    
                                         -------------------                                    --------------
                              TOTAL IN =   3757.738                                  TOTAL IN =   26.71744    

                   STREAM ACCUMULATION =   1414.677                       STREAM ACCUMULATION =   16.89841    
                        STREAM OUTFLOW =   2343.073                            STREAM OUTFLOW =   9.819041    
                          STREAM TO GW =   0.000000                              STREAM TO GW =   0.000000    
                CONSTANT CONCENTRATION =   0.000000                    CONSTANT CONCENTRATION =   0.000000    
                           EVAPORATION =   0.000000                               EVAPORATION =   0.000000    
                             MASS LOSS =   0.000000                                 MASS LOSS =   0.000000    
                                         -------------------                                    --------------
                             TOTAL OUT =   3757.750                                 TOTAL OUT =   26.71745    

                        NET (IN - OUT) = -0.1220703E-01                        NET (IN - OUT) = -0.7629395E-05
                 DISCREPANCY (PERCENT) = -0.3248500E-03                 DISCREPANCY (PERCENT) = -0.2855585E-04
                                              FLOW ERR (QIN-QOUT-DV) = -0.9536743E-06 [L3/T]




 >>>>>>>>>>>>>>>>>>>>>>>>>>>>>>>>>>>>>>>>>>>>>>>>>>>>>>>FOR COMPONENT NO. 01<<<<<<<<<<<<<<<<<<<<<<<<<<<<<<<<<<<<<<<<<<<<<<<<<<<<<<<


                                            -------------------------------------------
                                                      TRANSPORT STEP NO.   21
                                            -------------------------------------------

 TOTAL ELAPSED TIME SINCE BEGINNING OF SIMULATION =   45180.00    D   
 .....................................................................

                     CUMULATIVE MASS BUDGETS AT END OF TRANSPORT STEP   21, TIME STEP    1, STRESS PERIOD    3
                     -----------------------------------------------------------------------------------------

                                                             IN                           OUT
                                                      ----------------             ----------------
                               CONSTANT CONCENTRATION:    0.000000                    0.000000    
                                        CONSTANT HEAD:    563.9485                   -313.1941    
                                               STREAM:    0.000000                   -250.7587    
                               MASS STOR (FLOW MODEL):   0.5161509E-02              -0.6986623E-07
                                MASS STORAGE (SOLUTE):    0.000000                    0.000000    
                            ---------------------------------------------------------------------------
                                              [TOTAL]:    563.9537     KG            -563.9529     KG  

                                                          NET (IN - OUT):   0.8544922E-03
                                                   DISCREPANCY (PERCENT):   0.1515183E-03
     2 CALLS TO GCG PACKAGE FOR TRANSPORT TIME STEP    22 IN FLOW TIME STEP     1 STRESS PERIOD     3
      2 TOTAL ITERATIONS
  MAXIMUM CONCENTRATION CHANGES FOR EACH ITERATION:
  MAX. CHANGE LAYER,ROW,COL MAX. CHANGE LAYER,ROW,COL MAX. CHANGE LAYER,ROW,COL MAX. CHANGE LAYER,ROW,COL MAX. CHANGE LAYER,ROW,COL
 ------------------------------------------------------------------------------------------------------------------------------------
    0.000     (  1,  1,  1)   0.000     (  1,  1,  1)


                     STREAM MASS BUDGETS AT END OF TRANSPORT STEP   22, TIME STEP    1, STRESS PERIOD    3 FOR COMPONENT   1
                     -------------------------------------------------------------------------------------------------------

                                         CUMULATIVE MASS [M]                                     MASS FOR THIS TIME STEP [M]
                                         -------------------                                    --------------
                      STREAM DEPLETION =   395.2894                          STREAM DEPLETION =   17.38028    
                      INFLOW TO STREAM =   3137.395                          INFLOW TO STREAM =   8.325000    
                          GW TO STREAM =   251.7578                              GW TO STREAM =  0.9990391    
                         PRECIPITATION =   0.000000                             PRECIPITATION =   0.000000    
                                RUNOFF =   0.000000                                    RUNOFF =   0.000000    
                CONSTANT CONCENTRATION =   0.000000                    CONSTANT CONCENTRATION =   0.000000    
                             MASS GAIN =   0.000000                                 MASS GAIN =   0.000000    
                                         -------------------                                    --------------
                              TOTAL IN =   3784.442                                  TOTAL IN =   26.70432    

                   STREAM ACCUMULATION =   1431.475                       STREAM ACCUMULATION =   16.79847    
                        STREAM OUTFLOW =   2352.979                            STREAM OUTFLOW =   9.905845    
                          STREAM TO GW =   0.000000                              STREAM TO GW =   0.000000    
                CONSTANT CONCENTRATION =   0.000000                    CONSTANT CONCENTRATION =   0.000000    
                           EVAPORATION =   0.000000                               EVAPORATION =   0.000000    
                             MASS LOSS =   0.000000                                 MASS LOSS =   0.000000    
                                         -------------------                                    --------------
                             TOTAL OUT =   3784.454                                 TOTAL OUT =   26.70432    

                        NET (IN - OUT) = -0.1220703E-01                        NET (IN - OUT) =   0.000000    
                 DISCREPANCY (PERCENT) = -0.3225578E-03                 DISCREPANCY (PERCENT) =   0.000000    
                                              FLOW ERR (QIN-QOUT-DV) = -0.9536743E-06 [L3/T]




 >>>>>>>>>>>>>>>>>>>>>>>>>>>>>>>>>>>>>>>>>>>>>>>>>>>>>>>FOR COMPONENT NO. 01<<<<<<<<<<<<<<<<<<<<<<<<<<<<<<<<<<<<<<<<<<<<<<<<<<<<<<<


                                            -------------------------------------------
                                                      TRANSPORT STEP NO.   22
                                            -------------------------------------------

 TOTAL ELAPSED TIME SINCE BEGINNING OF SIMULATION =   45360.00    D   
 .....................................................................

                     CUMULATIVE MASS BUDGETS AT END OF TRANSPORT STEP   22, TIME STEP    1, STRESS PERIOD    3
                     -----------------------------------------------------------------------------------------

                                                             IN                           OUT
                                                      ----------------             ----------------
                               CONSTANT CONCENTRATION:    0.000000                    0.000000    
                                        CONSTANT HEAD:    566.1954                   -314.4419    
                                               STREAM:    0.000000                   -251.7578    
                               MASS STOR (FLOW MODEL):   0.5161509E-02              -0.6986623E-07
                                MASS STORAGE (SOLUTE):    0.000000                    0.000000    
                            ---------------------------------------------------------------------------
                                              [TOTAL]:    566.2006     KG            -566.1996     KG  

                                                          NET (IN - OUT):   0.9155273E-03
                                                   DISCREPANCY (PERCENT):   0.1616968E-03
     2 CALLS TO GCG PACKAGE FOR TRANSPORT TIME STEP    23 IN FLOW TIME STEP     1 STRESS PERIOD     3
      2 TOTAL ITERATIONS
  MAXIMUM CONCENTRATION CHANGES FOR EACH ITERATION:
  MAX. CHANGE LAYER,ROW,COL MAX. CHANGE LAYER,ROW,COL MAX. CHANGE LAYER,ROW,COL MAX. CHANGE LAYER,ROW,COL MAX. CHANGE LAYER,ROW,COL
 ------------------------------------------------------------------------------------------------------------------------------------
    0.000     (  1,  1,  1)   0.000     (  1,  1,  1)


                     STREAM MASS BUDGETS AT END OF TRANSPORT STEP   23, TIME STEP    1, STRESS PERIOD    3 FOR COMPONENT   1
                     -------------------------------------------------------------------------------------------------------

                                         CUMULATIVE MASS [M]                                     MASS FOR THIS TIME STEP [M]
                                         -------------------                                    --------------
                      STREAM DEPLETION =   412.6553                          STREAM DEPLETION =   17.36590    
                      INFLOW TO STREAM =   3145.720                          INFLOW TO STREAM =   8.325000    
                          GW TO STREAM =   252.7568                              GW TO STREAM =  0.9990391    
                         PRECIPITATION =   0.000000                             PRECIPITATION =   0.000000    
                                RUNOFF =   0.000000                                    RUNOFF =   0.000000    
                CONSTANT CONCENTRATION =   0.000000                    CONSTANT CONCENTRATION =   0.000000    
                             MASS GAIN =   0.000000                                 MASS GAIN =   0.000000    
                                         -------------------                                    --------------
                              TOTAL IN =   3811.132                                  TOTAL IN =   26.68994    

                   STREAM ACCUMULATION =   1448.162                       STREAM ACCUMULATION =   16.68656    
                        STREAM OUTFLOW =   2362.982                            STREAM OUTFLOW =   10.00338    
                          STREAM TO GW =   0.000000                              STREAM TO GW =   0.000000    
                CONSTANT CONCENTRATION =   0.000000                    CONSTANT CONCENTRATION =   0.000000    
                           EVAPORATION =   0.000000                               EVAPORATION =   0.000000    
                             MASS LOSS =   0.000000                                 MASS LOSS =   0.000000    
                                         -------------------                                    --------------
                             TOTAL OUT =   3811.144                                 TOTAL OUT =   26.68994    

                        NET (IN - OUT) = -0.1220703E-01                        NET (IN - OUT) =   0.000000    
                 DISCREPANCY (PERCENT) = -0.3202989E-03                 DISCREPANCY (PERCENT) =   0.000000    
                                              FLOW ERR (QIN-QOUT-DV) = -0.9536743E-06 [L3/T]




 >>>>>>>>>>>>>>>>>>>>>>>>>>>>>>>>>>>>>>>>>>>>>>>>>>>>>>>FOR COMPONENT NO. 01<<<<<<<<<<<<<<<<<<<<<<<<<<<<<<<<<<<<<<<<<<<<<<<<<<<<<<<


                                            -------------------------------------------
                                                      TRANSPORT STEP NO.   23
                                            -------------------------------------------

 TOTAL ELAPSED TIME SINCE BEGINNING OF SIMULATION =   45540.00    D   
 .....................................................................

                     CUMULATIVE MASS BUDGETS AT END OF TRANSPORT STEP   23, TIME STEP    1, STRESS PERIOD    3
                     -----------------------------------------------------------------------------------------

                                                             IN                           OUT
                                                      ----------------             ----------------
                               CONSTANT CONCENTRATION:    0.000000                    0.000000    
                                        CONSTANT HEAD:    568.4422                   -315.6897    
                                               STREAM:    0.000000                   -252.7568    
                               MASS STOR (FLOW MODEL):   0.5161509E-02              -0.6986623E-07
                                MASS STORAGE (SOLUTE):    0.000000                    0.000000    
                            ---------------------------------------------------------------------------
                                              [TOTAL]:    568.4474     KG            -568.4465     KG  

                                                          NET (IN - OUT):   0.9155273E-03
                                                   DISCREPANCY (PERCENT):   0.1610577E-03
     2 CALLS TO GCG PACKAGE FOR TRANSPORT TIME STEP    24 IN FLOW TIME STEP     1 STRESS PERIOD     3
      2 TOTAL ITERATIONS
  MAXIMUM CONCENTRATION CHANGES FOR EACH ITERATION:
  MAX. CHANGE LAYER,ROW,COL MAX. CHANGE LAYER,ROW,COL MAX. CHANGE LAYER,ROW,COL MAX. CHANGE LAYER,ROW,COL MAX. CHANGE LAYER,ROW,COL
 ------------------------------------------------------------------------------------------------------------------------------------
    0.000     (  1,  1,  1)   0.000     (  1,  1,  1)


                     STREAM MASS BUDGETS AT END OF TRANSPORT STEP   24, TIME STEP    1, STRESS PERIOD    3 FOR COMPONENT   1
                     -------------------------------------------------------------------------------------------------------

                                         CUMULATIVE MASS [M]                                     MASS FOR THIS TIME STEP [M]
                                         -------------------                                    --------------
                      STREAM DEPLETION =   430.0062                          STREAM DEPLETION =   17.35084    
                      INFLOW TO STREAM =   3154.045                          INFLOW TO STREAM =   8.325000    
                          GW TO STREAM =   253.7558                              GW TO STREAM =  0.9990391    
                         PRECIPITATION =   0.000000                             PRECIPITATION =   0.000000    
                                RUNOFF =   0.000000                                    RUNOFF =   0.000000    
                CONSTANT CONCENTRATION =   0.000000                    CONSTANT CONCENTRATION =   0.000000    
                             MASS GAIN =   0.000000                                 MASS GAIN =   0.000000    
                                         -------------------                                    --------------
                              TOTAL IN =   3837.807                                  TOTAL IN =   26.67488    

                   STREAM ACCUMULATION =   1464.724                       STREAM ACCUMULATION =   16.56262    
                        STREAM OUTFLOW =   2373.094                            STREAM OUTFLOW =   10.11226    
                          STREAM TO GW =   0.000000                              STREAM TO GW =   0.000000    
                CONSTANT CONCENTRATION =   0.000000                    CONSTANT CONCENTRATION =   0.000000    
                           EVAPORATION =   0.000000                               EVAPORATION =   0.000000    
                             MASS LOSS =   0.000000                                 MASS LOSS =   0.000000    
                                         -------------------                                    --------------
                             TOTAL OUT =   3837.819                                 TOTAL OUT =   26.67488    

                        NET (IN - OUT) = -0.1220703E-01                        NET (IN - OUT) =   0.000000    
                 DISCREPANCY (PERCENT) = -0.3180726E-03                 DISCREPANCY (PERCENT) =   0.000000    
                                              FLOW ERR (QIN-QOUT-DV) = -0.9536743E-06 [L3/T]




 >>>>>>>>>>>>>>>>>>>>>>>>>>>>>>>>>>>>>>>>>>>>>>>>>>>>>>>FOR COMPONENT NO. 01<<<<<<<<<<<<<<<<<<<<<<<<<<<<<<<<<<<<<<<<<<<<<<<<<<<<<<<


                                            -------------------------------------------
                                                      TRANSPORT STEP NO.   24
                                            -------------------------------------------

 TOTAL ELAPSED TIME SINCE BEGINNING OF SIMULATION =   45720.00    D   
 .....................................................................

                     CUMULATIVE MASS BUDGETS AT END OF TRANSPORT STEP   24, TIME STEP    1, STRESS PERIOD    3
                     -----------------------------------------------------------------------------------------

                                                             IN                           OUT
                                                      ----------------             ----------------
                               CONSTANT CONCENTRATION:    0.000000                    0.000000    
                                        CONSTANT HEAD:    570.6890                   -316.9374    
                                               STREAM:    0.000000                   -253.7558    
                               MASS STOR (FLOW MODEL):   0.5161509E-02              -0.6986623E-07
                                MASS STORAGE (SOLUTE):    0.000000                    0.000000    
                            ---------------------------------------------------------------------------
                                              [TOTAL]:    570.6942     KG            -570.6933     KG  

                                                          NET (IN - OUT):   0.9155273E-03
                                                   DISCREPANCY (PERCENT):   0.1604236E-03
     2 CALLS TO GCG PACKAGE FOR TRANSPORT TIME STEP    25 IN FLOW TIME STEP     1 STRESS PERIOD     3
      2 TOTAL ITERATIONS
  MAXIMUM CONCENTRATION CHANGES FOR EACH ITERATION:
  MAX. CHANGE LAYER,ROW,COL MAX. CHANGE LAYER,ROW,COL MAX. CHANGE LAYER,ROW,COL MAX. CHANGE LAYER,ROW,COL MAX. CHANGE LAYER,ROW,COL
 ------------------------------------------------------------------------------------------------------------------------------------
    0.000     (  1,  1,  1)   0.000     (  1,  1,  1)


                     STREAM MASS BUDGETS AT END OF TRANSPORT STEP   25, TIME STEP    1, STRESS PERIOD    3 FOR COMPONENT   1
                     -------------------------------------------------------------------------------------------------------

                                         CUMULATIVE MASS [M]                                     MASS FOR THIS TIME STEP [M]
                                         -------------------                                    --------------
                      STREAM DEPLETION =   447.3417                          STREAM DEPLETION =   17.33551    
                      INFLOW TO STREAM =   3162.370                          INFLOW TO STREAM =   8.325000    
                          GW TO STREAM =   254.7549                              GW TO STREAM =  0.9990391    
                         PRECIPITATION =   0.000000                             PRECIPITATION =   0.000000    
                                RUNOFF =   0.000000                                    RUNOFF =   0.000000    
                CONSTANT CONCENTRATION =   0.000000                    CONSTANT CONCENTRATION =   0.000000    
                             MASS GAIN =   0.000000                                 MASS GAIN =   0.000000    
                                         -------------------                                    --------------
                              TOTAL IN =   3864.466                                  TOTAL IN =   26.65955    

                   STREAM ACCUMULATION =   1481.151                       STREAM ACCUMULATION =   16.42653    
                        STREAM OUTFLOW =   2383.327                            STREAM OUTFLOW =   10.23303    
                          STREAM TO GW =   0.000000                              STREAM TO GW =   0.000000    
                CONSTANT CONCENTRATION =   0.000000                    CONSTANT CONCENTRATION =   0.000000    
                           EVAPORATION =   0.000000                               EVAPORATION =   0.000000    
                             MASS LOSS =   0.000000                                 MASS LOSS =   0.000000    
                                         -------------------                                    --------------
                             TOTAL OUT =   3864.479                                 TOTAL OUT =   26.65955    

                        NET (IN - OUT) = -0.1220703E-01                        NET (IN - OUT) =   0.000000    
                 DISCREPANCY (PERCENT) = -0.3158783E-03                 DISCREPANCY (PERCENT) =   0.000000    
                                              FLOW ERR (QIN-QOUT-DV) = -0.9536743E-06 [L3/T]




 >>>>>>>>>>>>>>>>>>>>>>>>>>>>>>>>>>>>>>>>>>>>>>>>>>>>>>>FOR COMPONENT NO. 01<<<<<<<<<<<<<<<<<<<<<<<<<<<<<<<<<<<<<<<<<<<<<<<<<<<<<<<


                                            -------------------------------------------
                                                      TRANSPORT STEP NO.   25
                                            -------------------------------------------

 TOTAL ELAPSED TIME SINCE BEGINNING OF SIMULATION =   45900.00    D   
 .....................................................................

                     CUMULATIVE MASS BUDGETS AT END OF TRANSPORT STEP   25, TIME STEP    1, STRESS PERIOD    3
                     -----------------------------------------------------------------------------------------

                                                             IN                           OUT
                                                      ----------------             ----------------
                               CONSTANT CONCENTRATION:    0.000000                    0.000000    
                                        CONSTANT HEAD:    572.9359                   -318.1852    
                                               STREAM:    0.000000                   -254.7549    
                               MASS STOR (FLOW MODEL):   0.5161509E-02              -0.6986623E-07
                                MASS STORAGE (SOLUTE):    0.000000                    0.000000    
                            ---------------------------------------------------------------------------
                                              [TOTAL]:    572.9410     KG            -572.9401     KG  

                                                          NET (IN - OUT):   0.9765625E-03
                                                   DISCREPANCY (PERCENT):   0.1704474E-03
     2 CALLS TO GCG PACKAGE FOR TRANSPORT TIME STEP    26 IN FLOW TIME STEP     1 STRESS PERIOD     3
      2 TOTAL ITERATIONS
  MAXIMUM CONCENTRATION CHANGES FOR EACH ITERATION:
  MAX. CHANGE LAYER,ROW,COL MAX. CHANGE LAYER,ROW,COL MAX. CHANGE LAYER,ROW,COL MAX. CHANGE LAYER,ROW,COL MAX. CHANGE LAYER,ROW,COL
 ------------------------------------------------------------------------------------------------------------------------------------
    0.000     (  1,  1,  1)   0.000     (  1,  1,  1)


                     STREAM MASS BUDGETS AT END OF TRANSPORT STEP   26, TIME STEP    1, STRESS PERIOD    3 FOR COMPONENT   1
                     -------------------------------------------------------------------------------------------------------

                                         CUMULATIVE MASS [M]                                     MASS FOR THIS TIME STEP [M]
                                         -------------------                                    --------------
                      STREAM DEPLETION =   464.6619                          STREAM DEPLETION =   17.32025    
                      INFLOW TO STREAM =   3170.695                          INFLOW TO STREAM =   8.325000    
                          GW TO STREAM =   255.7539                              GW TO STREAM =  0.9990391    
                         PRECIPITATION =   0.000000                             PRECIPITATION =   0.000000    
                                RUNOFF =   0.000000                                    RUNOFF =   0.000000    
                CONSTANT CONCENTRATION =   0.000000                    CONSTANT CONCENTRATION =   0.000000    
                             MASS GAIN =   0.000000                                 MASS GAIN =   0.000000    
                                         -------------------                                    --------------
                              TOTAL IN =   3891.110                                  TOTAL IN =   26.64429    

                   STREAM ACCUMULATION =   1497.429                       STREAM ACCUMULATION =   16.27813    
                        STREAM OUTFLOW =   2393.694                            STREAM OUTFLOW =   10.36616    
                          STREAM TO GW =   0.000000                              STREAM TO GW =   0.000000    
                CONSTANT CONCENTRATION =   0.000000                    CONSTANT CONCENTRATION =   0.000000    
                           EVAPORATION =   0.000000                               EVAPORATION =   0.000000    
                             MASS LOSS =   0.000000                                 MASS LOSS =   0.000000    
                                         -------------------                                    --------------
                             TOTAL OUT =   3891.123                                 TOTAL OUT =   26.64429    

                        NET (IN - OUT) = -0.1220703E-01                        NET (IN - OUT) = -0.3814697E-05
                 DISCREPANCY (PERCENT) = -0.3137154E-03                 DISCREPANCY (PERCENT) = -0.1431713E-04
                                              FLOW ERR (QIN-QOUT-DV) = -0.9536743E-06 [L3/T]




 >>>>>>>>>>>>>>>>>>>>>>>>>>>>>>>>>>>>>>>>>>>>>>>>>>>>>>>FOR COMPONENT NO. 01<<<<<<<<<<<<<<<<<<<<<<<<<<<<<<<<<<<<<<<<<<<<<<<<<<<<<<<


                                            -------------------------------------------
                                                      TRANSPORT STEP NO.   26
                                            -------------------------------------------

 TOTAL ELAPSED TIME SINCE BEGINNING OF SIMULATION =   46080.00    D   
 .....................................................................

                     CUMULATIVE MASS BUDGETS AT END OF TRANSPORT STEP   26, TIME STEP    1, STRESS PERIOD    3
                     -----------------------------------------------------------------------------------------

                                                             IN                           OUT
                                                      ----------------             ----------------
                               CONSTANT CONCENTRATION:    0.000000                    0.000000    
                                        CONSTANT HEAD:    575.1827                   -319.4330    
                                               STREAM:    0.000000                   -255.7539    
                               MASS STOR (FLOW MODEL):   0.5161509E-02              -0.6986623E-07
                                MASS STORAGE (SOLUTE):    0.000000                    0.000000    
                            ---------------------------------------------------------------------------
                                              [TOTAL]:    575.1879     KG            -575.1869     KG  

                                                          NET (IN - OUT):   0.9765625E-03
                                                   DISCREPANCY (PERCENT):   0.1697816E-03
     2 CALLS TO GCG PACKAGE FOR TRANSPORT TIME STEP    27 IN FLOW TIME STEP     1 STRESS PERIOD     3
      2 TOTAL ITERATIONS
  MAXIMUM CONCENTRATION CHANGES FOR EACH ITERATION:
  MAX. CHANGE LAYER,ROW,COL MAX. CHANGE LAYER,ROW,COL MAX. CHANGE LAYER,ROW,COL MAX. CHANGE LAYER,ROW,COL MAX. CHANGE LAYER,ROW,COL
 ------------------------------------------------------------------------------------------------------------------------------------
    0.000     (  1,  1,  1)   0.000     (  1,  1,  1)


                     STREAM MASS BUDGETS AT END OF TRANSPORT STEP   27, TIME STEP    1, STRESS PERIOD    3 FOR COMPONENT   1
                     -------------------------------------------------------------------------------------------------------

                                         CUMULATIVE MASS [M]                                     MASS FOR THIS TIME STEP [M]
                                         -------------------                                    --------------
                      STREAM DEPLETION =   481.9667                          STREAM DEPLETION =   17.30478    
                      INFLOW TO STREAM =   3179.020                          INFLOW TO STREAM =   8.325000    
                          GW TO STREAM =   256.7530                              GW TO STREAM =  0.9990391    
                         PRECIPITATION =   0.000000                             PRECIPITATION =   0.000000    
                                RUNOFF =   0.000000                                    RUNOFF =   0.000000    
                CONSTANT CONCENTRATION =   0.000000                    CONSTANT CONCENTRATION =   0.000000    
                             MASS GAIN =   0.000000                                 MASS GAIN =   0.000000    
                                         -------------------                                    --------------
                              TOTAL IN =   3917.739                                  TOTAL IN =   26.62882    

                   STREAM ACCUMULATION =   1513.546                       STREAM ACCUMULATION =   16.11676    
                        STREAM OUTFLOW =   2404.206                            STREAM OUTFLOW =   10.51206    
                          STREAM TO GW =   0.000000                              STREAM TO GW =   0.000000    
                CONSTANT CONCENTRATION =   0.000000                    CONSTANT CONCENTRATION =   0.000000    
                           EVAPORATION =   0.000000                               EVAPORATION =   0.000000    
                             MASS LOSS =   0.000000                                 MASS LOSS =   0.000000    
                                         -------------------                                    --------------
                             TOTAL OUT =   3917.751                                 TOTAL OUT =   26.62882    

                        NET (IN - OUT) = -0.1220703E-01                        NET (IN - OUT) =   0.000000    
                 DISCREPANCY (PERCENT) = -0.3115831E-03                 DISCREPANCY (PERCENT) =   0.000000    
                                              FLOW ERR (QIN-QOUT-DV) = -0.9536743E-06 [L3/T]




 >>>>>>>>>>>>>>>>>>>>>>>>>>>>>>>>>>>>>>>>>>>>>>>>>>>>>>>FOR COMPONENT NO. 01<<<<<<<<<<<<<<<<<<<<<<<<<<<<<<<<<<<<<<<<<<<<<<<<<<<<<<<


                                            -------------------------------------------
                                                      TRANSPORT STEP NO.   27
                                            -------------------------------------------

 TOTAL ELAPSED TIME SINCE BEGINNING OF SIMULATION =   46260.00    D   
 .....................................................................

                     CUMULATIVE MASS BUDGETS AT END OF TRANSPORT STEP   27, TIME STEP    1, STRESS PERIOD    3
                     -----------------------------------------------------------------------------------------

                                                             IN                           OUT
                                                      ----------------             ----------------
                               CONSTANT CONCENTRATION:    0.000000                    0.000000    
                                        CONSTANT HEAD:    577.4295                   -320.6808    
                                               STREAM:    0.000000                   -256.7530    
                               MASS STOR (FLOW MODEL):   0.5161509E-02              -0.6986623E-07
                                MASS STORAGE (SOLUTE):    0.000000                    0.000000    
                            ---------------------------------------------------------------------------
                                              [TOTAL]:    577.4347     KG            -577.4337     KG  

                                                          NET (IN - OUT):   0.9765625E-03
                                                   DISCREPANCY (PERCENT):   0.1691210E-03
     2 CALLS TO GCG PACKAGE FOR TRANSPORT TIME STEP    28 IN FLOW TIME STEP     1 STRESS PERIOD     3
      2 TOTAL ITERATIONS
  MAXIMUM CONCENTRATION CHANGES FOR EACH ITERATION:
  MAX. CHANGE LAYER,ROW,COL MAX. CHANGE LAYER,ROW,COL MAX. CHANGE LAYER,ROW,COL MAX. CHANGE LAYER,ROW,COL MAX. CHANGE LAYER,ROW,COL
 ------------------------------------------------------------------------------------------------------------------------------------
    0.000     (  1,  1,  1)   0.000     (  1,  1,  1)


                     STREAM MASS BUDGETS AT END OF TRANSPORT STEP   28, TIME STEP    1, STRESS PERIOD    3 FOR COMPONENT   1
                     -------------------------------------------------------------------------------------------------------

                                         CUMULATIVE MASS [M]                                     MASS FOR THIS TIME STEP [M]
                                         -------------------                                    --------------
                      STREAM DEPLETION =   499.2555                          STREAM DEPLETION =   17.28880    
                      INFLOW TO STREAM =   3187.344                          INFLOW TO STREAM =   8.325000    
                          GW TO STREAM =   257.7520                              GW TO STREAM =  0.9990391    
                         PRECIPITATION =   0.000000                             PRECIPITATION =   0.000000    
                                RUNOFF =   0.000000                                    RUNOFF =   0.000000    
                CONSTANT CONCENTRATION =   0.000000                    CONSTANT CONCENTRATION =   0.000000    
                             MASS GAIN =   0.000000                                 MASS GAIN =   0.000000    
                                         -------------------                                    --------------
                              TOTAL IN =   3944.352                                  TOTAL IN =   26.61284    

                   STREAM ACCUMULATION =   1529.488                       STREAM ACCUMULATION =   15.94180    
                        STREAM OUTFLOW =   2414.877                            STREAM OUTFLOW =   10.67105    
                          STREAM TO GW =   0.000000                              STREAM TO GW =   0.000000    
                CONSTANT CONCENTRATION =   0.000000                    CONSTANT CONCENTRATION =   0.000000    
                           EVAPORATION =   0.000000                               EVAPORATION =   0.000000    
                             MASS LOSS =   0.000000                                 MASS LOSS =   0.000000    
                                         -------------------                                    --------------
                             TOTAL OUT =   3944.364                                 TOTAL OUT =   26.61285    

                        NET (IN - OUT) = -0.1220703E-01                        NET (IN - OUT) = -0.7629395E-05
                 DISCREPANCY (PERCENT) = -0.3094808E-03                 DISCREPANCY (PERCENT) = -0.2866809E-04
                                              FLOW ERR (QIN-QOUT-DV) = -0.9536743E-06 [L3/T]




 >>>>>>>>>>>>>>>>>>>>>>>>>>>>>>>>>>>>>>>>>>>>>>>>>>>>>>>FOR COMPONENT NO. 01<<<<<<<<<<<<<<<<<<<<<<<<<<<<<<<<<<<<<<<<<<<<<<<<<<<<<<<


                                            -------------------------------------------
                                                      TRANSPORT STEP NO.   28
                                            -------------------------------------------

 TOTAL ELAPSED TIME SINCE BEGINNING OF SIMULATION =   46440.00    D   
 .....................................................................

                     CUMULATIVE MASS BUDGETS AT END OF TRANSPORT STEP   28, TIME STEP    1, STRESS PERIOD    3
                     -----------------------------------------------------------------------------------------

                                                             IN                           OUT
                                                      ----------------             ----------------
                               CONSTANT CONCENTRATION:    0.000000                    0.000000    
                                        CONSTANT HEAD:    579.6763                   -321.9285    
                                               STREAM:    0.000000                   -257.7520    
                               MASS STOR (FLOW MODEL):   0.5161509E-02              -0.6986623E-07
                                MASS STORAGE (SOLUTE):    0.000000                    0.000000    
                            ---------------------------------------------------------------------------
                                              [TOTAL]:    579.6815     KG            -579.6805     KG  

                                                          NET (IN - OUT):   0.9765625E-03
                                                   DISCREPANCY (PERCENT):   0.1684655E-03
     2 CALLS TO GCG PACKAGE FOR TRANSPORT TIME STEP    29 IN FLOW TIME STEP     1 STRESS PERIOD     3
      2 TOTAL ITERATIONS
  MAXIMUM CONCENTRATION CHANGES FOR EACH ITERATION:
  MAX. CHANGE LAYER,ROW,COL MAX. CHANGE LAYER,ROW,COL MAX. CHANGE LAYER,ROW,COL MAX. CHANGE LAYER,ROW,COL MAX. CHANGE LAYER,ROW,COL
 ------------------------------------------------------------------------------------------------------------------------------------
    0.000     (  1,  1,  1)   0.000     (  1,  1,  1)


                     STREAM MASS BUDGETS AT END OF TRANSPORT STEP   29, TIME STEP    1, STRESS PERIOD    3 FOR COMPONENT   1
                     -------------------------------------------------------------------------------------------------------

                                         CUMULATIVE MASS [M]                                     MASS FOR THIS TIME STEP [M]
                                         -------------------                                    --------------
                      STREAM DEPLETION =   516.5279                          STREAM DEPLETION =   17.27242    
                      INFLOW TO STREAM =   3195.669                          INFLOW TO STREAM =   8.325000    
                          GW TO STREAM =   258.7511                              GW TO STREAM =  0.9990391    
                         PRECIPITATION =   0.000000                             PRECIPITATION =   0.000000    
                                RUNOFF =   0.000000                                    RUNOFF =   0.000000    
                CONSTANT CONCENTRATION =   0.000000                    CONSTANT CONCENTRATION =   0.000000    
                             MASS GAIN =   0.000000                                 MASS GAIN =   0.000000    
                                         -------------------                                    --------------
                              TOTAL IN =   3970.948                                  TOTAL IN =   26.59646    

                   STREAM ACCUMULATION =   1545.241                       STREAM ACCUMULATION =   15.75312    
                        STREAM OUTFLOW =   2425.720                            STREAM OUTFLOW =   10.84334    
                          STREAM TO GW =   0.000000                              STREAM TO GW =   0.000000    
                CONSTANT CONCENTRATION =   0.000000                    CONSTANT CONCENTRATION =   0.000000    
                           EVAPORATION =   0.000000                               EVAPORATION =   0.000000    
                             MASS LOSS =   0.000000                                 MASS LOSS =   0.000000    
                                         -------------------                                    --------------
                             TOTAL OUT =   3970.961                                 TOTAL OUT =   26.59646    

                        NET (IN - OUT) = -0.1245117E-01                        NET (IN - OUT) =  0.3814697E-05
                 DISCREPANCY (PERCENT) = -0.3135561E-03                 DISCREPANCY (PERCENT) =  0.1434288E-04
                                              FLOW ERR (QIN-QOUT-DV) = -0.9536743E-06 [L3/T]




 >>>>>>>>>>>>>>>>>>>>>>>>>>>>>>>>>>>>>>>>>>>>>>>>>>>>>>>FOR COMPONENT NO. 01<<<<<<<<<<<<<<<<<<<<<<<<<<<<<<<<<<<<<<<<<<<<<<<<<<<<<<<


                                            -------------------------------------------
                                                      TRANSPORT STEP NO.   29
                                            -------------------------------------------

 TOTAL ELAPSED TIME SINCE BEGINNING OF SIMULATION =   46620.00    D   
 .....................................................................

                     CUMULATIVE MASS BUDGETS AT END OF TRANSPORT STEP   29, TIME STEP    1, STRESS PERIOD    3
                     -----------------------------------------------------------------------------------------

                                                             IN                           OUT
                                                      ----------------             ----------------
                               CONSTANT CONCENTRATION:    0.000000                    0.000000    
                                        CONSTANT HEAD:    581.9232                   -323.1763    
                                               STREAM:    0.000000                   -258.7511    
                               MASS STOR (FLOW MODEL):   0.5161509E-02              -0.6986623E-07
                                MASS STORAGE (SOLUTE):    0.000000                    0.000000    
                            ---------------------------------------------------------------------------
                                              [TOTAL]:    581.9283     KG            -581.9274     KG  

                                                          NET (IN - OUT):   0.9765625E-03
                                                   DISCREPANCY (PERCENT):   0.1678150E-03
     2 CALLS TO GCG PACKAGE FOR TRANSPORT TIME STEP    30 IN FLOW TIME STEP     1 STRESS PERIOD     3
      2 TOTAL ITERATIONS
  MAXIMUM CONCENTRATION CHANGES FOR EACH ITERATION:
  MAX. CHANGE LAYER,ROW,COL MAX. CHANGE LAYER,ROW,COL MAX. CHANGE LAYER,ROW,COL MAX. CHANGE LAYER,ROW,COL MAX. CHANGE LAYER,ROW,COL
 ------------------------------------------------------------------------------------------------------------------------------------
    0.000     (  1,  1,  1)   0.000     (  1,  1,  1)


                     STREAM MASS BUDGETS AT END OF TRANSPORT STEP   30, TIME STEP    1, STRESS PERIOD    3 FOR COMPONENT   1
                     -------------------------------------------------------------------------------------------------------

                                         CUMULATIVE MASS [M]                                     MASS FOR THIS TIME STEP [M]
                                         -------------------                                    --------------
                      STREAM DEPLETION =   533.7838                          STREAM DEPLETION =   17.25594    
                      INFLOW TO STREAM =   3203.994                          INFLOW TO STREAM =   8.325000    
                          GW TO STREAM =   259.7501                              GW TO STREAM =  0.9990391    
                         PRECIPITATION =   0.000000                             PRECIPITATION =   0.000000    
                                RUNOFF =   0.000000                                    RUNOFF =   0.000000    
                CONSTANT CONCENTRATION =   0.000000                    CONSTANT CONCENTRATION =   0.000000    
                             MASS GAIN =   0.000000                                 MASS GAIN =   0.000000    
                                         -------------------                                    --------------
                              TOTAL IN =   3997.528                                  TOTAL IN =   26.57998    

                   STREAM ACCUMULATION =   1560.792                       STREAM ACCUMULATION =   15.55091    
                        STREAM OUTFLOW =   2436.749                            STREAM OUTFLOW =   11.02907    
                          STREAM TO GW =   0.000000                              STREAM TO GW =   0.000000    
                CONSTANT CONCENTRATION =   0.000000                    CONSTANT CONCENTRATION =   0.000000    
                           EVAPORATION =   0.000000                               EVAPORATION =   0.000000    
                             MASS LOSS =   0.000000                                 MASS LOSS =   0.000000    
                                         -------------------                                    --------------
                             TOTAL OUT =   3997.541                                 TOTAL OUT =   26.57998    

                        NET (IN - OUT) = -0.1220703E-01                        NET (IN - OUT) = -0.3814697E-05
                 DISCREPANCY (PERCENT) = -0.3053640E-03                 DISCREPANCY (PERCENT) = -0.1435177E-04
                                              FLOW ERR (QIN-QOUT-DV) = -0.9536743E-06 [L3/T]




 >>>>>>>>>>>>>>>>>>>>>>>>>>>>>>>>>>>>>>>>>>>>>>>>>>>>>>>FOR COMPONENT NO. 01<<<<<<<<<<<<<<<<<<<<<<<<<<<<<<<<<<<<<<<<<<<<<<<<<<<<<<<


                                            -------------------------------------------
                                                      TRANSPORT STEP NO.   30
                                            -------------------------------------------

 TOTAL ELAPSED TIME SINCE BEGINNING OF SIMULATION =   46800.00    D   
 .....................................................................

                     CUMULATIVE MASS BUDGETS AT END OF TRANSPORT STEP   30, TIME STEP    1, STRESS PERIOD    3
                     -----------------------------------------------------------------------------------------

                                                             IN                           OUT
                                                      ----------------             ----------------
                               CONSTANT CONCENTRATION:    0.000000                    0.000000    
                                        CONSTANT HEAD:    584.1700                   -324.4241    
                                               STREAM:    0.000000                   -259.7501    
                               MASS STOR (FLOW MODEL):   0.5161509E-02              -0.6986623E-07
                                MASS STORAGE (SOLUTE):    0.000000                    0.000000    
                            ---------------------------------------------------------------------------
                                              [TOTAL]:    584.1752     KG            -584.1742     KG  

                                                          NET (IN - OUT):   0.9765625E-03
                                                   DISCREPANCY (PERCENT):   0.1671696E-03
     2 CALLS TO GCG PACKAGE FOR TRANSPORT TIME STEP    31 IN FLOW TIME STEP     1 STRESS PERIOD     3
      2 TOTAL ITERATIONS
  MAXIMUM CONCENTRATION CHANGES FOR EACH ITERATION:
  MAX. CHANGE LAYER,ROW,COL MAX. CHANGE LAYER,ROW,COL MAX. CHANGE LAYER,ROW,COL MAX. CHANGE LAYER,ROW,COL MAX. CHANGE LAYER,ROW,COL
 ------------------------------------------------------------------------------------------------------------------------------------
    0.000     (  1,  1,  1)   0.000     (  1,  1,  1)


                     STREAM MASS BUDGETS AT END OF TRANSPORT STEP   31, TIME STEP    1, STRESS PERIOD    3 FOR COMPONENT   1
                     -------------------------------------------------------------------------------------------------------

                                         CUMULATIVE MASS [M]                                     MASS FOR THIS TIME STEP [M]
                                         -------------------                                    --------------
                      STREAM DEPLETION =   551.0234                          STREAM DEPLETION =   17.23958    
                      INFLOW TO STREAM =   3212.319                          INFLOW TO STREAM =   8.325000    
                          GW TO STREAM =   260.7492                              GW TO STREAM =  0.9990391    
                         PRECIPITATION =   0.000000                             PRECIPITATION =   0.000000    
                                RUNOFF =   0.000000                                    RUNOFF =   0.000000    
                CONSTANT CONCENTRATION =   0.000000                    CONSTANT CONCENTRATION =   0.000000    
                             MASS GAIN =   0.000000                                 MASS GAIN =   0.000000    
                                         -------------------                                    --------------
                              TOTAL IN =   4024.092                                  TOTAL IN =   26.56362    

                   STREAM ACCUMULATION =   1576.127                       STREAM ACCUMULATION =   15.33538    
                        STREAM OUTFLOW =   2447.977                            STREAM OUTFLOW =   11.22824    
                          STREAM TO GW =   0.000000                              STREAM TO GW =   0.000000    
                CONSTANT CONCENTRATION =   0.000000                    CONSTANT CONCENTRATION =   0.000000    
                           EVAPORATION =   0.000000                               EVAPORATION =   0.000000    
                             MASS LOSS =   0.000000                                 MASS LOSS =   0.000000    
                                         -------------------                                    --------------
                             TOTAL OUT =   4024.104                                 TOTAL OUT =   26.56362    

                        NET (IN - OUT) = -0.1245117E-01                        NET (IN - OUT) =  0.3814697E-05
                 DISCREPANCY (PERCENT) = -0.3094152E-03                 DISCREPANCY (PERCENT) =  0.1436061E-04
                                              FLOW ERR (QIN-QOUT-DV) = -0.9536743E-06 [L3/T]




 >>>>>>>>>>>>>>>>>>>>>>>>>>>>>>>>>>>>>>>>>>>>>>>>>>>>>>>FOR COMPONENT NO. 01<<<<<<<<<<<<<<<<<<<<<<<<<<<<<<<<<<<<<<<<<<<<<<<<<<<<<<<


                                            -------------------------------------------
                                                      TRANSPORT STEP NO.   31
                                            -------------------------------------------

 TOTAL ELAPSED TIME SINCE BEGINNING OF SIMULATION =   46980.00    D   
 .....................................................................

                     CUMULATIVE MASS BUDGETS AT END OF TRANSPORT STEP   31, TIME STEP    1, STRESS PERIOD    3
                     -----------------------------------------------------------------------------------------

                                                             IN                           OUT
                                                      ----------------             ----------------
                               CONSTANT CONCENTRATION:    0.000000                    0.000000    
                                        CONSTANT HEAD:    586.4168                   -325.6718    
                                               STREAM:    0.000000                   -260.7492    
                               MASS STOR (FLOW MODEL):   0.5161509E-02              -0.6986623E-07
                                MASS STORAGE (SOLUTE):    0.000000                    0.000000    
                            ---------------------------------------------------------------------------
                                              [TOTAL]:    586.4220     KG            -586.4210     KG  

                                                          NET (IN - OUT):   0.9765625E-03
                                                   DISCREPANCY (PERCENT):   0.1665291E-03
     2 CALLS TO GCG PACKAGE FOR TRANSPORT TIME STEP    32 IN FLOW TIME STEP     1 STRESS PERIOD     3
      2 TOTAL ITERATIONS
  MAXIMUM CONCENTRATION CHANGES FOR EACH ITERATION:
  MAX. CHANGE LAYER,ROW,COL MAX. CHANGE LAYER,ROW,COL MAX. CHANGE LAYER,ROW,COL MAX. CHANGE LAYER,ROW,COL MAX. CHANGE LAYER,ROW,COL
 ------------------------------------------------------------------------------------------------------------------------------------
    0.000     (  1,  1,  1)   0.000     (  1,  1,  1)


                     STREAM MASS BUDGETS AT END OF TRANSPORT STEP   32, TIME STEP    1, STRESS PERIOD    3 FOR COMPONENT   1
                     -------------------------------------------------------------------------------------------------------

                                         CUMULATIVE MASS [M]                                     MASS FOR THIS TIME STEP [M]
                                         -------------------                                    --------------
                      STREAM DEPLETION =   568.2459                          STREAM DEPLETION =   17.22255    
                      INFLOW TO STREAM =   3220.644                          INFLOW TO STREAM =   8.325000    
                          GW TO STREAM =   261.7482                              GW TO STREAM =  0.9990391    
                         PRECIPITATION =   0.000000                             PRECIPITATION =   0.000000    
                                RUNOFF =   0.000000                                    RUNOFF =   0.000000    
                CONSTANT CONCENTRATION =   0.000000                    CONSTANT CONCENTRATION =   0.000000    
                             MASS GAIN =   0.000000                                 MASS GAIN =   0.000000    
                                         -------------------                                    --------------
                              TOTAL IN =   4050.638                                  TOTAL IN =   26.54659    

                   STREAM ACCUMULATION =   1591.233                       STREAM ACCUMULATION =   15.10579    
                        STREAM OUTFLOW =   2459.418                            STREAM OUTFLOW =   11.44079    
                          STREAM TO GW =   0.000000                              STREAM TO GW =   0.000000    
                CONSTANT CONCENTRATION =   0.000000                    CONSTANT CONCENTRATION =   0.000000    
                           EVAPORATION =   0.000000                               EVAPORATION =   0.000000    
                             MASS LOSS =   0.000000                                 MASS LOSS =   0.000000    
                                         -------------------                                    --------------
                             TOTAL OUT =   4050.651                                 TOTAL OUT =   26.54659    

                        NET (IN - OUT) = -0.1245117E-01                        NET (IN - OUT) =  0.7629395E-05
                 DISCREPANCY (PERCENT) = -0.3073874E-03                 DISCREPANCY (PERCENT) =  0.2873964E-04
                                              FLOW ERR (QIN-QOUT-DV) = -0.9536743E-06 [L3/T]




 >>>>>>>>>>>>>>>>>>>>>>>>>>>>>>>>>>>>>>>>>>>>>>>>>>>>>>>FOR COMPONENT NO. 01<<<<<<<<<<<<<<<<<<<<<<<<<<<<<<<<<<<<<<<<<<<<<<<<<<<<<<<


                                            -------------------------------------------
                                                      TRANSPORT STEP NO.   32
                                            -------------------------------------------

 TOTAL ELAPSED TIME SINCE BEGINNING OF SIMULATION =   47160.00    D   
 .....................................................................

                     CUMULATIVE MASS BUDGETS AT END OF TRANSPORT STEP   32, TIME STEP    1, STRESS PERIOD    3
                     -----------------------------------------------------------------------------------------

                                                             IN                           OUT
                                                      ----------------             ----------------
                               CONSTANT CONCENTRATION:    0.000000                    0.000000    
                                        CONSTANT HEAD:    588.6636                   -326.9196    
                                               STREAM:    0.000000                   -261.7482    
                               MASS STOR (FLOW MODEL):   0.5161509E-02              -0.6986623E-07
                                MASS STORAGE (SOLUTE):    0.000000                    0.000000    
                            ---------------------------------------------------------------------------
                                              [TOTAL]:    588.6688     KG            -588.6678     KG  

                                                          NET (IN - OUT):   0.9765625E-03
                                                   DISCREPANCY (PERCENT):   0.1658935E-03
     2 CALLS TO GCG PACKAGE FOR TRANSPORT TIME STEP    33 IN FLOW TIME STEP     1 STRESS PERIOD     3
      2 TOTAL ITERATIONS
  MAXIMUM CONCENTRATION CHANGES FOR EACH ITERATION:
  MAX. CHANGE LAYER,ROW,COL MAX. CHANGE LAYER,ROW,COL MAX. CHANGE LAYER,ROW,COL MAX. CHANGE LAYER,ROW,COL MAX. CHANGE LAYER,ROW,COL
 ------------------------------------------------------------------------------------------------------------------------------------
    0.000     (  1,  1,  1)   0.000     (  1,  1,  1)


                     STREAM MASS BUDGETS AT END OF TRANSPORT STEP   33, TIME STEP    1, STRESS PERIOD    3 FOR COMPONENT   1
                     -------------------------------------------------------------------------------------------------------

                                         CUMULATIVE MASS [M]                                     MASS FOR THIS TIME STEP [M]
                                         -------------------                                    --------------
                      STREAM DEPLETION =   585.4508                          STREAM DEPLETION =   17.20487    
                      INFLOW TO STREAM =   3228.969                          INFLOW TO STREAM =   8.325000    
                          GW TO STREAM =   262.7473                              GW TO STREAM =  0.9990391    
                         PRECIPITATION =   0.000000                             PRECIPITATION =   0.000000    
                                RUNOFF =   0.000000                                    RUNOFF =   0.000000    
                CONSTANT CONCENTRATION =   0.000000                    CONSTANT CONCENTRATION =   0.000000    
                             MASS GAIN =   0.000000                                 MASS GAIN =   0.000000    
                                         -------------------                                    --------------
                              TOTAL IN =   4077.167                                  TOTAL IN =   26.52891    

                   STREAM ACCUMULATION =   1606.095                       STREAM ACCUMULATION =   14.86237    
                        STREAM OUTFLOW =   2471.084                            STREAM OUTFLOW =   11.66654    
                          STREAM TO GW =   0.000000                              STREAM TO GW =   0.000000    
                CONSTANT CONCENTRATION =   0.000000                    CONSTANT CONCENTRATION =   0.000000    
                           EVAPORATION =   0.000000                               EVAPORATION =   0.000000    
                             MASS LOSS =   0.000000                                 MASS LOSS =   0.000000    
                                         -------------------                                    --------------
                             TOTAL OUT =   4077.180                                 TOTAL OUT =   26.52891    

                        NET (IN - OUT) = -0.1220703E-01                        NET (IN - OUT) =   0.000000    
                 DISCREPANCY (PERCENT) = -0.2993993E-03                 DISCREPANCY (PERCENT) =   0.000000    
                                              FLOW ERR (QIN-QOUT-DV) = -0.9536743E-06 [L3/T]




 >>>>>>>>>>>>>>>>>>>>>>>>>>>>>>>>>>>>>>>>>>>>>>>>>>>>>>>FOR COMPONENT NO. 01<<<<<<<<<<<<<<<<<<<<<<<<<<<<<<<<<<<<<<<<<<<<<<<<<<<<<<<


                                            -------------------------------------------
                                                      TRANSPORT STEP NO.   33
                                            -------------------------------------------

 TOTAL ELAPSED TIME SINCE BEGINNING OF SIMULATION =   47340.00    D   
 .....................................................................

                     CUMULATIVE MASS BUDGETS AT END OF TRANSPORT STEP   33, TIME STEP    1, STRESS PERIOD    3
                     -----------------------------------------------------------------------------------------

                                                             IN                           OUT
                                                      ----------------             ----------------
                               CONSTANT CONCENTRATION:    0.000000                    0.000000    
                                        CONSTANT HEAD:    590.9105                   -328.1674    
                                               STREAM:    0.000000                   -262.7473    
                               MASS STOR (FLOW MODEL):   0.5161509E-02              -0.6986623E-07
                                MASS STORAGE (SOLUTE):    0.000000                    0.000000    
                            ---------------------------------------------------------------------------
                                              [TOTAL]:    590.9156     KG            -590.9147     KG  

                                                          NET (IN - OUT):   0.9765625E-03
                                                   DISCREPANCY (PERCENT):   0.1652627E-03
     2 CALLS TO GCG PACKAGE FOR TRANSPORT TIME STEP    34 IN FLOW TIME STEP     1 STRESS PERIOD     3
      2 TOTAL ITERATIONS
  MAXIMUM CONCENTRATION CHANGES FOR EACH ITERATION:
  MAX. CHANGE LAYER,ROW,COL MAX. CHANGE LAYER,ROW,COL MAX. CHANGE LAYER,ROW,COL MAX. CHANGE LAYER,ROW,COL MAX. CHANGE LAYER,ROW,COL
 ------------------------------------------------------------------------------------------------------------------------------------
    0.000     (  1,  1,  1)   0.000     (  1,  1,  1)


                     STREAM MASS BUDGETS AT END OF TRANSPORT STEP   34, TIME STEP    1, STRESS PERIOD    3 FOR COMPONENT   1
                     -------------------------------------------------------------------------------------------------------

                                         CUMULATIVE MASS [M]                                     MASS FOR THIS TIME STEP [M]
                                         -------------------                                    --------------
                      STREAM DEPLETION =   602.6375                          STREAM DEPLETION =   17.18662    
                      INFLOW TO STREAM =   3237.294                          INFLOW TO STREAM =   8.325000    
                          GW TO STREAM =   263.7463                              GW TO STREAM =  0.9990391    
                         PRECIPITATION =   0.000000                             PRECIPITATION =   0.000000    
                                RUNOFF =   0.000000                                    RUNOFF =   0.000000    
                CONSTANT CONCENTRATION =   0.000000                    CONSTANT CONCENTRATION =   0.000000    
                             MASS GAIN =   0.000000                                 MASS GAIN =   0.000000    
                                         -------------------                                    --------------
                              TOTAL IN =   4103.678                                  TOTAL IN =   26.51065    

                   STREAM ACCUMULATION =   1620.701                       STREAM ACCUMULATION =   14.60548    
                        STREAM OUTFLOW =   2482.990                            STREAM OUTFLOW =   11.90519    
                          STREAM TO GW =   0.000000                              STREAM TO GW =   0.000000    
                CONSTANT CONCENTRATION =   0.000000                    CONSTANT CONCENTRATION =   0.000000    
                           EVAPORATION =   0.000000                               EVAPORATION =   0.000000    
                             MASS LOSS =   0.000000                                 MASS LOSS =   0.000000    
                                         -------------------                                    --------------
                             TOTAL OUT =   4103.690                                 TOTAL OUT =   26.51066    

                        NET (IN - OUT) = -0.1269531E-01                        NET (IN - OUT) = -0.7629395E-05
                 DISCREPANCY (PERCENT) = -0.3093638E-03                 DISCREPANCY (PERCENT) = -0.2877859E-04
                                              FLOW ERR (QIN-QOUT-DV) = -0.9536743E-06 [L3/T]




 >>>>>>>>>>>>>>>>>>>>>>>>>>>>>>>>>>>>>>>>>>>>>>>>>>>>>>>FOR COMPONENT NO. 01<<<<<<<<<<<<<<<<<<<<<<<<<<<<<<<<<<<<<<<<<<<<<<<<<<<<<<<


                                            -------------------------------------------
                                                      TRANSPORT STEP NO.   34
                                            -------------------------------------------

 TOTAL ELAPSED TIME SINCE BEGINNING OF SIMULATION =   47520.00    D   
 .....................................................................

                     CUMULATIVE MASS BUDGETS AT END OF TRANSPORT STEP   34, TIME STEP    1, STRESS PERIOD    3
                     -----------------------------------------------------------------------------------------

                                                             IN                           OUT
                                                      ----------------             ----------------
                               CONSTANT CONCENTRATION:    0.000000                    0.000000    
                                        CONSTANT HEAD:    593.1573                   -329.4152    
                                               STREAM:    0.000000                   -263.7463    
                               MASS STOR (FLOW MODEL):   0.5161509E-02              -0.6986623E-07
                                MASS STORAGE (SOLUTE):    0.000000                    0.000000    
                            ---------------------------------------------------------------------------
                                              [TOTAL]:    593.1625     KG            -593.1615     KG  

                                                          NET (IN - OUT):   0.9765625E-03
                                                   DISCREPANCY (PERCENT):   0.1646367E-03
     2 CALLS TO GCG PACKAGE FOR TRANSPORT TIME STEP    35 IN FLOW TIME STEP     1 STRESS PERIOD     3
      2 TOTAL ITERATIONS
  MAXIMUM CONCENTRATION CHANGES FOR EACH ITERATION:
  MAX. CHANGE LAYER,ROW,COL MAX. CHANGE LAYER,ROW,COL MAX. CHANGE LAYER,ROW,COL MAX. CHANGE LAYER,ROW,COL MAX. CHANGE LAYER,ROW,COL
 ------------------------------------------------------------------------------------------------------------------------------------
    0.000     (  1,  1,  1)   0.000     (  1,  1,  1)


                     STREAM MASS BUDGETS AT END OF TRANSPORT STEP   35, TIME STEP    1, STRESS PERIOD    3 FOR COMPONENT   1
                     -------------------------------------------------------------------------------------------------------

                                         CUMULATIVE MASS [M]                                     MASS FOR THIS TIME STEP [M]
                                         -------------------                                    --------------
                      STREAM DEPLETION =   619.8052                          STREAM DEPLETION =   17.16777    
                      INFLOW TO STREAM =   3245.619                          INFLOW TO STREAM =   8.325000    
                          GW TO STREAM =   264.7454                              GW TO STREAM =  0.9990391    
                         PRECIPITATION =   0.000000                             PRECIPITATION =   0.000000    
                                RUNOFF =   0.000000                                    RUNOFF =   0.000000    
                CONSTANT CONCENTRATION =   0.000000                    CONSTANT CONCENTRATION =   0.000000    
                             MASS GAIN =   0.000000                                 MASS GAIN =   0.000000    
                                         -------------------                                    --------------
                              TOTAL IN =   4130.170                                  TOTAL IN =   26.49181    

                   STREAM ACCUMULATION =   1635.036                       STREAM ACCUMULATION =   14.33544    
                        STREAM OUTFLOW =   2495.146                            STREAM OUTFLOW =   12.15636    
                          STREAM TO GW =   0.000000                              STREAM TO GW =   0.000000    
                CONSTANT CONCENTRATION =   0.000000                    CONSTANT CONCENTRATION =   0.000000    
                           EVAPORATION =   0.000000                               EVAPORATION =   0.000000    
                             MASS LOSS =   0.000000                                 MASS LOSS =   0.000000    
                                         -------------------                                    --------------
                             TOTAL OUT =   4130.182                                 TOTAL OUT =   26.49179    

                        NET (IN - OUT) = -0.1220703E-01                        NET (IN - OUT) =  0.1144409E-04
                 DISCREPANCY (PERCENT) = -0.2955572E-03                 DISCREPANCY (PERCENT) =  0.4319862E-04
                                              FLOW ERR (QIN-QOUT-DV) = -0.9536743E-06 [L3/T]




 >>>>>>>>>>>>>>>>>>>>>>>>>>>>>>>>>>>>>>>>>>>>>>>>>>>>>>>FOR COMPONENT NO. 01<<<<<<<<<<<<<<<<<<<<<<<<<<<<<<<<<<<<<<<<<<<<<<<<<<<<<<<


                                            -------------------------------------------
                                                      TRANSPORT STEP NO.   35
                                            -------------------------------------------

 TOTAL ELAPSED TIME SINCE BEGINNING OF SIMULATION =   47700.00    D   
 .....................................................................

                     CUMULATIVE MASS BUDGETS AT END OF TRANSPORT STEP   35, TIME STEP    1, STRESS PERIOD    3
                     -----------------------------------------------------------------------------------------

                                                             IN                           OUT
                                                      ----------------             ----------------
                               CONSTANT CONCENTRATION:    0.000000                    0.000000    
                                        CONSTANT HEAD:    595.4041                   -330.6629    
                                               STREAM:    0.000000                   -264.7454    
                               MASS STOR (FLOW MODEL):   0.5161509E-02              -0.6986623E-07
                                MASS STORAGE (SOLUTE):    0.000000                    0.000000    
                            ---------------------------------------------------------------------------
                                              [TOTAL]:    595.4093     KG            -595.4083     KG  

                                                          NET (IN - OUT):   0.9765625E-03
                                                   DISCREPANCY (PERCENT):   0.1640155E-03
     2 CALLS TO GCG PACKAGE FOR TRANSPORT TIME STEP    36 IN FLOW TIME STEP     1 STRESS PERIOD     3
      2 TOTAL ITERATIONS
  MAXIMUM CONCENTRATION CHANGES FOR EACH ITERATION:
  MAX. CHANGE LAYER,ROW,COL MAX. CHANGE LAYER,ROW,COL MAX. CHANGE LAYER,ROW,COL MAX. CHANGE LAYER,ROW,COL MAX. CHANGE LAYER,ROW,COL
 ------------------------------------------------------------------------------------------------------------------------------------
    0.000     (  1,  1,  1)   0.000     (  1,  1,  1)


                     STREAM MASS BUDGETS AT END OF TRANSPORT STEP   36, TIME STEP    1, STRESS PERIOD    3 FOR COMPONENT   1
                     -------------------------------------------------------------------------------------------------------

                                         CUMULATIVE MASS [M]                                     MASS FOR THIS TIME STEP [M]
                                         -------------------                                    --------------
                      STREAM DEPLETION =   636.9536                          STREAM DEPLETION =   17.14830    
                      INFLOW TO STREAM =   3253.944                          INFLOW TO STREAM =   8.325000    
                          GW TO STREAM =   265.7444                              GW TO STREAM =  0.9990391    
                         PRECIPITATION =   0.000000                             PRECIPITATION =   0.000000    
                                RUNOFF =   0.000000                                    RUNOFF =   0.000000    
                CONSTANT CONCENTRATION =   0.000000                    CONSTANT CONCENTRATION =   0.000000    
                             MASS GAIN =   0.000000                                 MASS GAIN =   0.000000    
                                         -------------------                                    --------------
                              TOTAL IN =   4156.642                                  TOTAL IN =   26.47234    

                   STREAM ACCUMULATION =   1649.089                       STREAM ACCUMULATION =   14.05277    
                        STREAM OUTFLOW =   2507.566                            STREAM OUTFLOW =   12.41957    
                          STREAM TO GW =   0.000000                              STREAM TO GW =   0.000000    
                CONSTANT CONCENTRATION =   0.000000                    CONSTANT CONCENTRATION =   0.000000    
                           EVAPORATION =   0.000000                               EVAPORATION =   0.000000    
                             MASS LOSS =   0.000000                                 MASS LOSS =   0.000000    
                                         -------------------                                    --------------
                             TOTAL OUT =   4156.654                                 TOTAL OUT =   26.47234    

                        NET (IN - OUT) = -0.1220703E-01                        NET (IN - OUT) = -0.1907349E-05
                 DISCREPANCY (PERCENT) = -0.2936748E-03                 DISCREPANCY (PERCENT) = -0.7205063E-05
                                              FLOW ERR (QIN-QOUT-DV) = -0.9536743E-06 [L3/T]




 >>>>>>>>>>>>>>>>>>>>>>>>>>>>>>>>>>>>>>>>>>>>>>>>>>>>>>>FOR COMPONENT NO. 01<<<<<<<<<<<<<<<<<<<<<<<<<<<<<<<<<<<<<<<<<<<<<<<<<<<<<<<


                                            -------------------------------------------
                                                      TRANSPORT STEP NO.   36
                                            -------------------------------------------

 TOTAL ELAPSED TIME SINCE BEGINNING OF SIMULATION =   47880.00    D   
 .....................................................................

                     CUMULATIVE MASS BUDGETS AT END OF TRANSPORT STEP   36, TIME STEP    1, STRESS PERIOD    3
                     -----------------------------------------------------------------------------------------

                                                             IN                           OUT
                                                      ----------------             ----------------
                               CONSTANT CONCENTRATION:    0.000000                    0.000000    
                                        CONSTANT HEAD:    597.6509                   -331.9107    
                                               STREAM:    0.000000                   -265.7444    
                               MASS STOR (FLOW MODEL):   0.5161509E-02              -0.6986623E-07
                                MASS STORAGE (SOLUTE):    0.000000                    0.000000    
                            ---------------------------------------------------------------------------
                                              [TOTAL]:    597.6561     KG            -597.6552     KG  

                                                          NET (IN - OUT):   0.9765625E-03
                                                   DISCREPANCY (PERCENT):   0.1633989E-03
     2 CALLS TO GCG PACKAGE FOR TRANSPORT TIME STEP    37 IN FLOW TIME STEP     1 STRESS PERIOD     3
      2 TOTAL ITERATIONS
  MAXIMUM CONCENTRATION CHANGES FOR EACH ITERATION:
  MAX. CHANGE LAYER,ROW,COL MAX. CHANGE LAYER,ROW,COL MAX. CHANGE LAYER,ROW,COL MAX. CHANGE LAYER,ROW,COL MAX. CHANGE LAYER,ROW,COL
 ------------------------------------------------------------------------------------------------------------------------------------
    0.000     (  1,  1,  1)   0.000     (  1,  1,  1)


                     STREAM MASS BUDGETS AT END OF TRANSPORT STEP   37, TIME STEP    1, STRESS PERIOD    3 FOR COMPONENT   1
                     -------------------------------------------------------------------------------------------------------

                                         CUMULATIVE MASS [M]                                     MASS FOR THIS TIME STEP [M]
                                         -------------------                                    --------------
                      STREAM DEPLETION =   654.0818                          STREAM DEPLETION =   17.12829    
                      INFLOW TO STREAM =   3262.269                          INFLOW TO STREAM =   8.325000    
                          GW TO STREAM =   266.7435                              GW TO STREAM =  0.9990391    
                         PRECIPITATION =   0.000000                             PRECIPITATION =   0.000000    
                                RUNOFF =   0.000000                                    RUNOFF =   0.000000    
                CONSTANT CONCENTRATION =   0.000000                    CONSTANT CONCENTRATION =   0.000000    
                             MASS GAIN =   0.000000                                 MASS GAIN =   0.000000    
                                         -------------------                                    --------------
                              TOTAL IN =   4183.094                                  TOTAL IN =   26.45233    

                   STREAM ACCUMULATION =   1662.847                       STREAM ACCUMULATION =   13.75808    
                        STREAM OUTFLOW =   2520.260                            STREAM OUTFLOW =   12.69426    
                          STREAM TO GW =   0.000000                              STREAM TO GW =   0.000000    
                CONSTANT CONCENTRATION =   0.000000                    CONSTANT CONCENTRATION =   0.000000    
                           EVAPORATION =   0.000000                               EVAPORATION =   0.000000    
                             MASS LOSS =   0.000000                                 MASS LOSS =   0.000000    
                                         -------------------                                    --------------
                             TOTAL OUT =   4183.107                                 TOTAL OUT =   26.45233    

                        NET (IN - OUT) = -0.1269531E-01                        NET (IN - OUT) =   0.000000    
                 DISCREPANCY (PERCENT) = -0.3034905E-03                 DISCREPANCY (PERCENT) =   0.000000    
                                              FLOW ERR (QIN-QOUT-DV) = -0.9536743E-06 [L3/T]




 >>>>>>>>>>>>>>>>>>>>>>>>>>>>>>>>>>>>>>>>>>>>>>>>>>>>>>>FOR COMPONENT NO. 01<<<<<<<<<<<<<<<<<<<<<<<<<<<<<<<<<<<<<<<<<<<<<<<<<<<<<<<


                                            -------------------------------------------
                                                      TRANSPORT STEP NO.   37
                                            -------------------------------------------

 TOTAL ELAPSED TIME SINCE BEGINNING OF SIMULATION =   48060.00    D   
 .....................................................................

                     CUMULATIVE MASS BUDGETS AT END OF TRANSPORT STEP   37, TIME STEP    1, STRESS PERIOD    3
                     -----------------------------------------------------------------------------------------

                                                             IN                           OUT
                                                      ----------------             ----------------
                               CONSTANT CONCENTRATION:    0.000000                    0.000000    
                                        CONSTANT HEAD:    599.8978                   -333.1585    
                                               STREAM:    0.000000                   -266.7435    
                               MASS STOR (FLOW MODEL):   0.5161509E-02              -0.6986623E-07
                                MASS STORAGE (SOLUTE):    0.000000                    0.000000    
                            ---------------------------------------------------------------------------
                                              [TOTAL]:    599.9030     KG            -599.9020     KG  

                                                          NET (IN - OUT):   0.9765625E-03
                                                   DISCREPANCY (PERCENT):   0.1627869E-03
     2 CALLS TO GCG PACKAGE FOR TRANSPORT TIME STEP    38 IN FLOW TIME STEP     1 STRESS PERIOD     3
      2 TOTAL ITERATIONS
  MAXIMUM CONCENTRATION CHANGES FOR EACH ITERATION:
  MAX. CHANGE LAYER,ROW,COL MAX. CHANGE LAYER,ROW,COL MAX. CHANGE LAYER,ROW,COL MAX. CHANGE LAYER,ROW,COL MAX. CHANGE LAYER,ROW,COL
 ------------------------------------------------------------------------------------------------------------------------------------
    0.000     (  1,  1,  1)   0.000     (  1,  1,  1)


                     STREAM MASS BUDGETS AT END OF TRANSPORT STEP   38, TIME STEP    1, STRESS PERIOD    3 FOR COMPONENT   1
                     -------------------------------------------------------------------------------------------------------

                                         CUMULATIVE MASS [M]                                     MASS FOR THIS TIME STEP [M]
                                         -------------------                                    --------------
                      STREAM DEPLETION =   671.1896                          STREAM DEPLETION =   17.10774    
                      INFLOW TO STREAM =   3270.594                          INFLOW TO STREAM =   8.325000    
                          GW TO STREAM =   267.7426                              GW TO STREAM =  0.9990391    
                         PRECIPITATION =   0.000000                             PRECIPITATION =   0.000000    
                                RUNOFF =   0.000000                                    RUNOFF =   0.000000    
                CONSTANT CONCENTRATION =   0.000000                    CONSTANT CONCENTRATION =   0.000000    
                             MASS GAIN =   0.000000                                 MASS GAIN =   0.000000    
                                         -------------------                                    --------------
                              TOTAL IN =   4209.526                                  TOTAL IN =   26.43178    

                   STREAM ACCUMULATION =   1676.299                       STREAM ACCUMULATION =   13.45201    
                        STREAM OUTFLOW =   2533.240                            STREAM OUTFLOW =   12.97977    
                          STREAM TO GW =   0.000000                              STREAM TO GW =   0.000000    
                CONSTANT CONCENTRATION =   0.000000                    CONSTANT CONCENTRATION =   0.000000    
                           EVAPORATION =   0.000000                               EVAPORATION =   0.000000    
                             MASS LOSS =   0.000000                                 MASS LOSS =   0.000000    
                                         -------------------                                    --------------
                             TOTAL OUT =   4209.539                                 TOTAL OUT =   26.43178    

                        NET (IN - OUT) = -0.1220703E-01                        NET (IN - OUT) =  0.3814697E-05
                 DISCREPANCY (PERCENT) = -0.2899854E-03                 DISCREPANCY (PERCENT) =  0.1443224E-04
                                              FLOW ERR (QIN-QOUT-DV) = -0.9536743E-06 [L3/T]




 >>>>>>>>>>>>>>>>>>>>>>>>>>>>>>>>>>>>>>>>>>>>>>>>>>>>>>>FOR COMPONENT NO. 01<<<<<<<<<<<<<<<<<<<<<<<<<<<<<<<<<<<<<<<<<<<<<<<<<<<<<<<


                                            -------------------------------------------
                                                      TRANSPORT STEP NO.   38
                                            -------------------------------------------

 TOTAL ELAPSED TIME SINCE BEGINNING OF SIMULATION =   48240.00    D   
 .....................................................................

                     CUMULATIVE MASS BUDGETS AT END OF TRANSPORT STEP   38, TIME STEP    1, STRESS PERIOD    3
                     -----------------------------------------------------------------------------------------

                                                             IN                           OUT
                                                      ----------------             ----------------
                               CONSTANT CONCENTRATION:    0.000000                    0.000000    
                                        CONSTANT HEAD:    602.1446                   -334.4062    
                                               STREAM:    0.000000                   -267.7426    
                               MASS STOR (FLOW MODEL):   0.5161509E-02              -0.6986623E-07
                                MASS STORAGE (SOLUTE):    0.000000                    0.000000    
                            ---------------------------------------------------------------------------
                                              [TOTAL]:    602.1498     KG            -602.1488     KG  

                                                          NET (IN - OUT):   0.9765625E-03
                                                   DISCREPANCY (PERCENT):   0.1621795E-03
     2 CALLS TO GCG PACKAGE FOR TRANSPORT TIME STEP    39 IN FLOW TIME STEP     1 STRESS PERIOD     3
      2 TOTAL ITERATIONS
  MAXIMUM CONCENTRATION CHANGES FOR EACH ITERATION:
  MAX. CHANGE LAYER,ROW,COL MAX. CHANGE LAYER,ROW,COL MAX. CHANGE LAYER,ROW,COL MAX. CHANGE LAYER,ROW,COL MAX. CHANGE LAYER,ROW,COL
 ------------------------------------------------------------------------------------------------------------------------------------
    0.000     (  1,  1,  1)   0.000     (  1,  1,  1)


                     STREAM MASS BUDGETS AT END OF TRANSPORT STEP   39, TIME STEP    1, STRESS PERIOD    3 FOR COMPONENT   1
                     -------------------------------------------------------------------------------------------------------

                                         CUMULATIVE MASS [M]                                     MASS FOR THIS TIME STEP [M]
                                         -------------------                                    --------------
                      STREAM DEPLETION =   688.2762                          STREAM DEPLETION =   17.08660    
                      INFLOW TO STREAM =   3278.919                          INFLOW TO STREAM =   8.325000    
                          GW TO STREAM =   268.7416                              GW TO STREAM =  0.9990391    
                         PRECIPITATION =   0.000000                             PRECIPITATION =   0.000000    
                                RUNOFF =   0.000000                                    RUNOFF =   0.000000    
                CONSTANT CONCENTRATION =   0.000000                    CONSTANT CONCENTRATION =   0.000000    
                             MASS GAIN =   0.000000                                 MASS GAIN =   0.000000    
                                         -------------------                                    --------------
                              TOTAL IN =   4235.937                                  TOTAL IN =   26.41064    

                   STREAM ACCUMULATION =   1689.434                       STREAM ACCUMULATION =   13.13526    
                        STREAM OUTFLOW =   2546.515                            STREAM OUTFLOW =   13.27538    
                          STREAM TO GW =   0.000000                              STREAM TO GW =   0.000000    
                CONSTANT CONCENTRATION =   0.000000                    CONSTANT CONCENTRATION =   0.000000    
                           EVAPORATION =   0.000000                               EVAPORATION =   0.000000    
                             MASS LOSS =   0.000000                                 MASS LOSS =   0.000000    
                                         -------------------                                    --------------
                             TOTAL OUT =   4235.949                                 TOTAL OUT =   26.41064    

                        NET (IN - OUT) = -0.1269531E-01                        NET (IN - OUT) =  0.1907349E-05
                 DISCREPANCY (PERCENT) = -0.2997045E-03                 DISCREPANCY (PERCENT) =  0.7221895E-05
                                              FLOW ERR (QIN-QOUT-DV) = -0.9536743E-06 [L3/T]




 >>>>>>>>>>>>>>>>>>>>>>>>>>>>>>>>>>>>>>>>>>>>>>>>>>>>>>>FOR COMPONENT NO. 01<<<<<<<<<<<<<<<<<<<<<<<<<<<<<<<<<<<<<<<<<<<<<<<<<<<<<<<


                                            -------------------------------------------
                                                      TRANSPORT STEP NO.   39
                                            -------------------------------------------

 TOTAL ELAPSED TIME SINCE BEGINNING OF SIMULATION =   48420.00    D   
 .....................................................................

                     CUMULATIVE MASS BUDGETS AT END OF TRANSPORT STEP   39, TIME STEP    1, STRESS PERIOD    3
                     -----------------------------------------------------------------------------------------

                                                             IN                           OUT
                                                      ----------------             ----------------
                               CONSTANT CONCENTRATION:    0.000000                    0.000000    
                                        CONSTANT HEAD:    604.3914                   -335.6540    
                                               STREAM:    0.000000                   -268.7416    
                               MASS STOR (FLOW MODEL):   0.5161509E-02              -0.6986623E-07
                                MASS STORAGE (SOLUTE):    0.000000                    0.000000    
                            ---------------------------------------------------------------------------
                                              [TOTAL]:    604.3966     KG            -604.3956     KG  

                                                          NET (IN - OUT):   0.9765625E-03
                                                   DISCREPANCY (PERCENT):   0.1615766E-03
     2 CALLS TO GCG PACKAGE FOR TRANSPORT TIME STEP    40 IN FLOW TIME STEP     1 STRESS PERIOD     3
      2 TOTAL ITERATIONS
  MAXIMUM CONCENTRATION CHANGES FOR EACH ITERATION:
  MAX. CHANGE LAYER,ROW,COL MAX. CHANGE LAYER,ROW,COL MAX. CHANGE LAYER,ROW,COL MAX. CHANGE LAYER,ROW,COL MAX. CHANGE LAYER,ROW,COL
 ------------------------------------------------------------------------------------------------------------------------------------
    0.000     (  1,  1,  1)   0.000     (  1,  1,  1)


                     STREAM MASS BUDGETS AT END OF TRANSPORT STEP   40, TIME STEP    1, STRESS PERIOD    3 FOR COMPONENT   1
                     -------------------------------------------------------------------------------------------------------

                                         CUMULATIVE MASS [M]                                     MASS FOR THIS TIME STEP [M]
                                         -------------------                                    --------------
                      STREAM DEPLETION =   705.3409                          STREAM DEPLETION =   17.06471    
                      INFLOW TO STREAM =   3287.244                          INFLOW TO STREAM =   8.325000    
                          GW TO STREAM =   269.7407                              GW TO STREAM =  0.9990391    
                         PRECIPITATION =   0.000000                             PRECIPITATION =   0.000000    
                                RUNOFF =   0.000000                                    RUNOFF =   0.000000    
                CONSTANT CONCENTRATION =   0.000000                    CONSTANT CONCENTRATION =   0.000000    
                             MASS GAIN =   0.000000                                 MASS GAIN =   0.000000    
                                         -------------------                                    --------------
                              TOTAL IN =   4262.325                                  TOTAL IN =   26.38875    

                   STREAM ACCUMULATION =   1702.243                       STREAM ACCUMULATION =   12.80845    
                        STREAM OUTFLOW =   2560.095                            STREAM OUTFLOW =   13.58031    
                          STREAM TO GW =   0.000000                              STREAM TO GW =   0.000000    
                CONSTANT CONCENTRATION =   0.000000                    CONSTANT CONCENTRATION =   0.000000    
                           EVAPORATION =   0.000000                               EVAPORATION =   0.000000    
                             MASS LOSS =   0.000000                                 MASS LOSS =   0.000000    
                                         -------------------                                    --------------
                             TOTAL OUT =   4262.338                                 TOTAL OUT =   26.38876    

                        NET (IN - OUT) = -0.1269531E-01                        NET (IN - OUT) = -0.5722046E-05
                 DISCREPANCY (PERCENT) = -0.2978490E-03                 DISCREPANCY (PERCENT) = -0.2168365E-04
                                              FLOW ERR (QIN-QOUT-DV) = -0.9536743E-06 [L3/T]




 >>>>>>>>>>>>>>>>>>>>>>>>>>>>>>>>>>>>>>>>>>>>>>>>>>>>>>>FOR COMPONENT NO. 01<<<<<<<<<<<<<<<<<<<<<<<<<<<<<<<<<<<<<<<<<<<<<<<<<<<<<<<


                                            -------------------------------------------
                                                      TRANSPORT STEP NO.   40
                                            -------------------------------------------

 TOTAL ELAPSED TIME SINCE BEGINNING OF SIMULATION =   48600.00    D   
 .....................................................................

                     CUMULATIVE MASS BUDGETS AT END OF TRANSPORT STEP   40, TIME STEP    1, STRESS PERIOD    3
                     -----------------------------------------------------------------------------------------

                                                             IN                           OUT
                                                      ----------------             ----------------
                               CONSTANT CONCENTRATION:    0.000000                    0.000000    
                                        CONSTANT HEAD:    606.6382                   -336.9018    
                                               STREAM:    0.000000                   -269.7407    
                               MASS STOR (FLOW MODEL):   0.5161509E-02              -0.6986623E-07
                                MASS STORAGE (SOLUTE):    0.000000                    0.000000    
                            ---------------------------------------------------------------------------
                                              [TOTAL]:    606.6434     KG            -606.6425     KG  

                                                          NET (IN - OUT):   0.9765625E-03
                                                   DISCREPANCY (PERCENT):   0.1609781E-03
     2 CALLS TO GCG PACKAGE FOR TRANSPORT TIME STEP    41 IN FLOW TIME STEP     1 STRESS PERIOD     3
      2 TOTAL ITERATIONS
  MAXIMUM CONCENTRATION CHANGES FOR EACH ITERATION:
  MAX. CHANGE LAYER,ROW,COL MAX. CHANGE LAYER,ROW,COL MAX. CHANGE LAYER,ROW,COL MAX. CHANGE LAYER,ROW,COL MAX. CHANGE LAYER,ROW,COL
 ------------------------------------------------------------------------------------------------------------------------------------
    0.000     (  1,  1,  1)   0.000     (  1,  1,  1)


                     STREAM MASS BUDGETS AT END OF TRANSPORT STEP   41, TIME STEP    1, STRESS PERIOD    3 FOR COMPONENT   1
                     -------------------------------------------------------------------------------------------------------

                                         CUMULATIVE MASS [M]                                     MASS FOR THIS TIME STEP [M]
                                         -------------------                                    --------------
                      STREAM DEPLETION =   722.3827                          STREAM DEPLETION =   17.04183    
                      INFLOW TO STREAM =   3295.569                          INFLOW TO STREAM =   8.325000    
                          GW TO STREAM =   270.7397                              GW TO STREAM =  0.9990391    
                         PRECIPITATION =   0.000000                             PRECIPITATION =   0.000000    
                                RUNOFF =   0.000000                                    RUNOFF =   0.000000    
                CONSTANT CONCENTRATION =   0.000000                    CONSTANT CONCENTRATION =   0.000000    
                             MASS GAIN =   0.000000                                 MASS GAIN =   0.000000    
                                         -------------------                                    --------------
                              TOTAL IN =   4288.691                                  TOTAL IN =   26.36587    

                   STREAM ACCUMULATION =   1714.715                       STREAM ACCUMULATION =   12.47217    
                        STREAM OUTFLOW =   2573.989                            STREAM OUTFLOW =   13.89370    
                          STREAM TO GW =   0.000000                              STREAM TO GW =   0.000000    
                CONSTANT CONCENTRATION =   0.000000                    CONSTANT CONCENTRATION =   0.000000    
                           EVAPORATION =   0.000000                               EVAPORATION =   0.000000    
                             MASS LOSS =   0.000000                                 MASS LOSS =   0.000000    
                                         -------------------                                    --------------
                             TOTAL OUT =   4288.704                                 TOTAL OUT =   26.36587    

                        NET (IN - OUT) = -0.1269531E-01                        NET (IN - OUT) =   0.000000    
                 DISCREPANCY (PERCENT) = -0.2960179E-03                 DISCREPANCY (PERCENT) =   0.000000    
                                              FLOW ERR (QIN-QOUT-DV) = -0.9536743E-06 [L3/T]




 >>>>>>>>>>>>>>>>>>>>>>>>>>>>>>>>>>>>>>>>>>>>>>>>>>>>>>>FOR COMPONENT NO. 01<<<<<<<<<<<<<<<<<<<<<<<<<<<<<<<<<<<<<<<<<<<<<<<<<<<<<<<


                                            -------------------------------------------
                                                      TRANSPORT STEP NO.   41
                                            -------------------------------------------

 TOTAL ELAPSED TIME SINCE BEGINNING OF SIMULATION =   48780.00    D   
 .....................................................................

                     CUMULATIVE MASS BUDGETS AT END OF TRANSPORT STEP   41, TIME STEP    1, STRESS PERIOD    3
                     -----------------------------------------------------------------------------------------

                                                             IN                           OUT
                                                      ----------------             ----------------
                               CONSTANT CONCENTRATION:    0.000000                    0.000000    
                                        CONSTANT HEAD:    608.8851                   -338.1496    
                                               STREAM:    0.000000                   -270.7397    
                               MASS STOR (FLOW MODEL):   0.5161509E-02              -0.6986623E-07
                                MASS STORAGE (SOLUTE):    0.000000                    0.000000    
                            ---------------------------------------------------------------------------
                                              [TOTAL]:    608.8903     KG            -608.8893     KG  

                                                          NET (IN - OUT):   0.9765625E-03
                                                   DISCREPANCY (PERCENT):   0.1603841E-03
     2 CALLS TO GCG PACKAGE FOR TRANSPORT TIME STEP    42 IN FLOW TIME STEP     1 STRESS PERIOD     3
      2 TOTAL ITERATIONS
  MAXIMUM CONCENTRATION CHANGES FOR EACH ITERATION:
  MAX. CHANGE LAYER,ROW,COL MAX. CHANGE LAYER,ROW,COL MAX. CHANGE LAYER,ROW,COL MAX. CHANGE LAYER,ROW,COL MAX. CHANGE LAYER,ROW,COL
 ------------------------------------------------------------------------------------------------------------------------------------
    0.000     (  1,  1,  1)   0.000     (  1,  1,  1)


                     STREAM MASS BUDGETS AT END OF TRANSPORT STEP   42, TIME STEP    1, STRESS PERIOD    3 FOR COMPONENT   1
                     -------------------------------------------------------------------------------------------------------

                                         CUMULATIVE MASS [M]                                     MASS FOR THIS TIME STEP [M]
                                         -------------------                                    --------------
                      STREAM DEPLETION =   739.4001                          STREAM DEPLETION =   17.01742    
                      INFLOW TO STREAM =   3303.894                          INFLOW TO STREAM =   8.325000    
                          GW TO STREAM =   271.7388                              GW TO STREAM =  0.9990391    
                         PRECIPITATION =   0.000000                             PRECIPITATION =   0.000000    
                                RUNOFF =   0.000000                                    RUNOFF =   0.000000    
                CONSTANT CONCENTRATION =   0.000000                    CONSTANT CONCENTRATION =   0.000000    
                             MASS GAIN =   0.000000                                 MASS GAIN =   0.000000    
                                         -------------------                                    --------------
                              TOTAL IN =   4315.033                                  TOTAL IN =   26.34146    

                   STREAM ACCUMULATION =   1726.842                       STREAM ACCUMULATION =   12.12680    
                        STREAM OUTFLOW =   2588.204                            STREAM OUTFLOW =   14.21466    
                          STREAM TO GW =   0.000000                              STREAM TO GW =   0.000000    
                CONSTANT CONCENTRATION =   0.000000                    CONSTANT CONCENTRATION =   0.000000    
                           EVAPORATION =   0.000000                               EVAPORATION =   0.000000    
                             MASS LOSS =   0.000000                                 MASS LOSS =   0.000000    
                                         -------------------                                    --------------
                             TOTAL OUT =   4315.045                                 TOTAL OUT =   26.34146    

                        NET (IN - OUT) = -0.1269531E-01                        NET (IN - OUT) = -0.1907349E-05
                 DISCREPANCY (PERCENT) = -0.2942108E-03                 DISCREPANCY (PERCENT) = -0.7240862E-05
                                              FLOW ERR (QIN-QOUT-DV) = -0.9536743E-06 [L3/T]




 >>>>>>>>>>>>>>>>>>>>>>>>>>>>>>>>>>>>>>>>>>>>>>>>>>>>>>>FOR COMPONENT NO. 01<<<<<<<<<<<<<<<<<<<<<<<<<<<<<<<<<<<<<<<<<<<<<<<<<<<<<<<


                                            -------------------------------------------
                                                      TRANSPORT STEP NO.   42
                                            -------------------------------------------

 TOTAL ELAPSED TIME SINCE BEGINNING OF SIMULATION =   48960.00    D   
 .....................................................................

                     CUMULATIVE MASS BUDGETS AT END OF TRANSPORT STEP   42, TIME STEP    1, STRESS PERIOD    3
                     -----------------------------------------------------------------------------------------

                                                             IN                           OUT
                                                      ----------------             ----------------
                               CONSTANT CONCENTRATION:    0.000000                    0.000000    
                                        CONSTANT HEAD:    611.1319                   -339.3973    
                                               STREAM:    0.000000                   -271.7388    
                               MASS STOR (FLOW MODEL):   0.5161509E-02              -0.6986623E-07
                                MASS STORAGE (SOLUTE):    0.000000                    0.000000    
                            ---------------------------------------------------------------------------
                                              [TOTAL]:    611.1371     KG            -611.1361     KG  

                                                          NET (IN - OUT):   0.9765625E-03
                                                   DISCREPANCY (PERCENT):   0.1597945E-03
     2 CALLS TO GCG PACKAGE FOR TRANSPORT TIME STEP    43 IN FLOW TIME STEP     1 STRESS PERIOD     3
      2 TOTAL ITERATIONS
  MAXIMUM CONCENTRATION CHANGES FOR EACH ITERATION:
  MAX. CHANGE LAYER,ROW,COL MAX. CHANGE LAYER,ROW,COL MAX. CHANGE LAYER,ROW,COL MAX. CHANGE LAYER,ROW,COL MAX. CHANGE LAYER,ROW,COL
 ------------------------------------------------------------------------------------------------------------------------------------
    0.000     (  1,  1,  1)   0.000     (  1,  1,  1)


                     STREAM MASS BUDGETS AT END OF TRANSPORT STEP   43, TIME STEP    1, STRESS PERIOD    3 FOR COMPONENT   1
                     -------------------------------------------------------------------------------------------------------

                                         CUMULATIVE MASS [M]                                     MASS FOR THIS TIME STEP [M]
                                         -------------------                                    --------------
                      STREAM DEPLETION =   756.3909                          STREAM DEPLETION =   16.99081    
                      INFLOW TO STREAM =   3312.219                          INFLOW TO STREAM =   8.325000    
                          GW TO STREAM =   272.7378                              GW TO STREAM =  0.9990391    
                         PRECIPITATION =   0.000000                             PRECIPITATION =   0.000000    
                                RUNOFF =   0.000000                                    RUNOFF =   0.000000    
                CONSTANT CONCENTRATION =   0.000000                    CONSTANT CONCENTRATION =   0.000000    
                             MASS GAIN =   0.000000                                 MASS GAIN =   0.000000    
                                         -------------------                                    --------------
                              TOTAL IN =   4341.348                                  TOTAL IN =   26.31485    

                   STREAM ACCUMULATION =   1738.614                       STREAM ACCUMULATION =   11.77258    
                        STREAM OUTFLOW =   2602.746                            STREAM OUTFLOW =   14.54226    
                          STREAM TO GW =   0.000000                              STREAM TO GW =   0.000000    
                CONSTANT CONCENTRATION =   0.000000                    CONSTANT CONCENTRATION =   0.000000    
                           EVAPORATION =   0.000000                               EVAPORATION =   0.000000    
                             MASS LOSS =   0.000000                                 MASS LOSS =   0.000000    
                                         -------------------                                    --------------
                             TOTAL OUT =   4341.360                                 TOTAL OUT =   26.31485    

                        NET (IN - OUT) = -0.1269531E-01                        NET (IN - OUT) =   0.000000    
                 DISCREPANCY (PERCENT) = -0.2924275E-03                 DISCREPANCY (PERCENT) =   0.000000    
                                              FLOW ERR (QIN-QOUT-DV) = -0.9536743E-06 [L3/T]




 >>>>>>>>>>>>>>>>>>>>>>>>>>>>>>>>>>>>>>>>>>>>>>>>>>>>>>>FOR COMPONENT NO. 01<<<<<<<<<<<<<<<<<<<<<<<<<<<<<<<<<<<<<<<<<<<<<<<<<<<<<<<


                                            -------------------------------------------
                                                      TRANSPORT STEP NO.   43
                                            -------------------------------------------

 TOTAL ELAPSED TIME SINCE BEGINNING OF SIMULATION =   49140.00    D   
 .....................................................................

                     CUMULATIVE MASS BUDGETS AT END OF TRANSPORT STEP   43, TIME STEP    1, STRESS PERIOD    3
                     -----------------------------------------------------------------------------------------

                                                             IN                           OUT
                                                      ----------------             ----------------
                               CONSTANT CONCENTRATION:    0.000000                    0.000000    
                                        CONSTANT HEAD:    613.3787                   -340.6451    
                                               STREAM:    0.000000                   -272.7378    
                               MASS STOR (FLOW MODEL):   0.5161509E-02              -0.6986623E-07
                                MASS STORAGE (SOLUTE):    0.000000                    0.000000    
                            ---------------------------------------------------------------------------
                                              [TOTAL]:    613.3839     KG            -613.3829     KG  

                                                          NET (IN - OUT):   0.9765625E-03
                                                   DISCREPANCY (PERCENT):   0.1592091E-03
     2 CALLS TO GCG PACKAGE FOR TRANSPORT TIME STEP    44 IN FLOW TIME STEP     1 STRESS PERIOD     3
      2 TOTAL ITERATIONS
  MAXIMUM CONCENTRATION CHANGES FOR EACH ITERATION:
  MAX. CHANGE LAYER,ROW,COL MAX. CHANGE LAYER,ROW,COL MAX. CHANGE LAYER,ROW,COL MAX. CHANGE LAYER,ROW,COL MAX. CHANGE LAYER,ROW,COL
 ------------------------------------------------------------------------------------------------------------------------------------
    0.000     (  1,  1,  1)   0.000     (  1,  1,  1)


                     STREAM MASS BUDGETS AT END OF TRANSPORT STEP   44, TIME STEP    1, STRESS PERIOD    3 FOR COMPONENT   1
                     -------------------------------------------------------------------------------------------------------

                                         CUMULATIVE MASS [M]                                     MASS FOR THIS TIME STEP [M]
                                         -------------------                                    --------------
                      STREAM DEPLETION =   773.3517                          STREAM DEPLETION =   16.96081    
                      INFLOW TO STREAM =   3320.544                          INFLOW TO STREAM =   8.325000    
                          GW TO STREAM =   273.7369                              GW TO STREAM =  0.9990391    
                         PRECIPITATION =   0.000000                             PRECIPITATION =   0.000000    
                                RUNOFF =   0.000000                                    RUNOFF =   0.000000    
                CONSTANT CONCENTRATION =   0.000000                    CONSTANT CONCENTRATION =   0.000000    
                             MASS GAIN =   0.000000                                 MASS GAIN =   0.000000    
                                         -------------------                                    --------------
                              TOTAL IN =   4367.632                                  TOTAL IN =   26.28485    

                   STREAM ACCUMULATION =   1750.024                       STREAM ACCUMULATION =   11.40931    
                        STREAM OUTFLOW =   2617.622                            STREAM OUTFLOW =   14.87555    
                          STREAM TO GW =   0.000000                              STREAM TO GW =   0.000000    
                CONSTANT CONCENTRATION =   0.000000                    CONSTANT CONCENTRATION =   0.000000    
                           EVAPORATION =   0.000000                               EVAPORATION =   0.000000    
                             MASS LOSS =   0.000000                                 MASS LOSS =   0.000000    
                                         -------------------                                    --------------
                             TOTAL OUT =   4367.645                                 TOTAL OUT =   26.28485    

                        NET (IN - OUT) = -0.1269531E-01                        NET (IN - OUT) = -0.7629395E-05
                 DISCREPANCY (PERCENT) = -0.2906676E-03                 DISCREPANCY (PERCENT) = -0.2902582E-04
                                              FLOW ERR (QIN-QOUT-DV) = -0.9536743E-06 [L3/T]




 >>>>>>>>>>>>>>>>>>>>>>>>>>>>>>>>>>>>>>>>>>>>>>>>>>>>>>>FOR COMPONENT NO. 01<<<<<<<<<<<<<<<<<<<<<<<<<<<<<<<<<<<<<<<<<<<<<<<<<<<<<<<


                                            -------------------------------------------
                                                      TRANSPORT STEP NO.   44
                                            -------------------------------------------

 TOTAL ELAPSED TIME SINCE BEGINNING OF SIMULATION =   49320.00    D   
 .....................................................................

                     CUMULATIVE MASS BUDGETS AT END OF TRANSPORT STEP   44, TIME STEP    1, STRESS PERIOD    3
                     -----------------------------------------------------------------------------------------

                                                             IN                           OUT
                                                      ----------------             ----------------
                               CONSTANT CONCENTRATION:    0.000000                    0.000000    
                                        CONSTANT HEAD:    615.6255                   -341.8929    
                                               STREAM:    0.000000                   -273.7369    
                               MASS STOR (FLOW MODEL):   0.5161509E-02              -0.6986623E-07
                                MASS STORAGE (SOLUTE):    0.000000                    0.000000    
                            ---------------------------------------------------------------------------
                                              [TOTAL]:    615.6307     KG            -615.6298     KG  

                                                          NET (IN - OUT):   0.9765625E-03
                                                   DISCREPANCY (PERCENT):   0.1586281E-03
     2 CALLS TO GCG PACKAGE FOR TRANSPORT TIME STEP    45 IN FLOW TIME STEP     1 STRESS PERIOD     3
      2 TOTAL ITERATIONS
  MAXIMUM CONCENTRATION CHANGES FOR EACH ITERATION:
  MAX. CHANGE LAYER,ROW,COL MAX. CHANGE LAYER,ROW,COL MAX. CHANGE LAYER,ROW,COL MAX. CHANGE LAYER,ROW,COL MAX. CHANGE LAYER,ROW,COL
 ------------------------------------------------------------------------------------------------------------------------------------
    0.000     (  1,  1,  1)   0.000     (  1,  1,  1)


                     STREAM MASS BUDGETS AT END OF TRANSPORT STEP   45, TIME STEP    1, STRESS PERIOD    3 FOR COMPONENT   1
                     -------------------------------------------------------------------------------------------------------

                                         CUMULATIVE MASS [M]                                     MASS FOR THIS TIME STEP [M]
                                         -------------------                                    --------------
                      STREAM DEPLETION =   790.2774                          STREAM DEPLETION =   16.92571    
                      INFLOW TO STREAM =   3328.869                          INFLOW TO STREAM =   8.325000    
                          GW TO STREAM =   274.7359                              GW TO STREAM =  0.9990391    
                         PRECIPITATION =   0.000000                             PRECIPITATION =   0.000000    
                                RUNOFF =   0.000000                                    RUNOFF =   0.000000    
                CONSTANT CONCENTRATION =   0.000000                    CONSTANT CONCENTRATION =   0.000000    
                             MASS GAIN =   0.000000                                 MASS GAIN =   0.000000    
                                         -------------------                                    --------------
                              TOTAL IN =   4393.882                                  TOTAL IN =   26.24975    

                   STREAM ACCUMULATION =   1761.060                       STREAM ACCUMULATION =   11.03622    
                        STREAM OUTFLOW =   2632.835                            STREAM OUTFLOW =   15.21354    
                          STREAM TO GW =   0.000000                              STREAM TO GW =   0.000000    
                CONSTANT CONCENTRATION =   0.000000                    CONSTANT CONCENTRATION =   0.000000    
                           EVAPORATION =   0.000000                               EVAPORATION =   0.000000    
                             MASS LOSS =   0.000000                                 MASS LOSS =   0.000000    
                                         -------------------                                    --------------
                             TOTAL OUT =   4393.895                                 TOTAL OUT =   26.24975    

                        NET (IN - OUT) = -0.1318359E-01                        NET (IN - OUT) = -0.3814697E-05
                 DISCREPANCY (PERCENT) = -0.3000439E-03                 DISCREPANCY (PERCENT) = -0.1453232E-04
                                              FLOW ERR (QIN-QOUT-DV) = -0.9536743E-06 [L3/T]




 >>>>>>>>>>>>>>>>>>>>>>>>>>>>>>>>>>>>>>>>>>>>>>>>>>>>>>>FOR COMPONENT NO. 01<<<<<<<<<<<<<<<<<<<<<<<<<<<<<<<<<<<<<<<<<<<<<<<<<<<<<<<


                                            -------------------------------------------
                                                      TRANSPORT STEP NO.   45
                                            -------------------------------------------

 TOTAL ELAPSED TIME SINCE BEGINNING OF SIMULATION =   49500.00    D   
 .....................................................................

                     CUMULATIVE MASS BUDGETS AT END OF TRANSPORT STEP   45, TIME STEP    1, STRESS PERIOD    3
                     -----------------------------------------------------------------------------------------

                                                             IN                           OUT
                                                      ----------------             ----------------
                               CONSTANT CONCENTRATION:    0.000000                    0.000000    
                                        CONSTANT HEAD:    617.8724                   -343.1407    
                                               STREAM:    0.000000                   -274.7359    
                               MASS STOR (FLOW MODEL):   0.5161509E-02              -0.6986623E-07
                                MASS STORAGE (SOLUTE):    0.000000                    0.000000    
                            ---------------------------------------------------------------------------
                                              [TOTAL]:    617.8776     KG            -617.8766     KG  

                                                          NET (IN - OUT):   0.9765625E-03
                                                   DISCREPANCY (PERCENT):   0.1580513E-03
     2 CALLS TO GCG PACKAGE FOR TRANSPORT TIME STEP    46 IN FLOW TIME STEP     1 STRESS PERIOD     3
      2 TOTAL ITERATIONS
  MAXIMUM CONCENTRATION CHANGES FOR EACH ITERATION:
  MAX. CHANGE LAYER,ROW,COL MAX. CHANGE LAYER,ROW,COL MAX. CHANGE LAYER,ROW,COL MAX. CHANGE LAYER,ROW,COL MAX. CHANGE LAYER,ROW,COL
 ------------------------------------------------------------------------------------------------------------------------------------
    0.000     (  1,  1,  1)   0.000     (  1,  1,  1)


                     STREAM MASS BUDGETS AT END OF TRANSPORT STEP   46, TIME STEP    1, STRESS PERIOD    3 FOR COMPONENT   1
                     -------------------------------------------------------------------------------------------------------

                                         CUMULATIVE MASS [M]                                     MASS FOR THIS TIME STEP [M]
                                         -------------------                                    --------------
                      STREAM DEPLETION =   807.1603                          STREAM DEPLETION =   16.88296    
                      INFLOW TO STREAM =   3337.194                          INFLOW TO STREAM =   8.325000    
                          GW TO STREAM =   275.7350                              GW TO STREAM =  0.9990391    
                         PRECIPITATION =   0.000000                             PRECIPITATION =   0.000000    
                                RUNOFF =   0.000000                                    RUNOFF =   0.000000    
                CONSTANT CONCENTRATION =   0.000000                    CONSTANT CONCENTRATION =   0.000000    
                             MASS GAIN =   0.000000                                 MASS GAIN =   0.000000    
                                         -------------------                                    --------------
                              TOTAL IN =   4420.089                                  TOTAL IN =   26.20700    

                   STREAM ACCUMULATION =   1771.712                       STREAM ACCUMULATION =   10.65175    
                        STREAM OUTFLOW =   2648.390                            STREAM OUTFLOW =   15.55524    
                          STREAM TO GW =   0.000000                              STREAM TO GW =   0.000000    
                CONSTANT CONCENTRATION =   0.000000                    CONSTANT CONCENTRATION =   0.000000    
                           EVAPORATION =   0.000000                               EVAPORATION =   0.000000    
                             MASS LOSS =   0.000000                                 MASS LOSS =   0.000000    
                                         -------------------                                    --------------
                             TOTAL OUT =   4420.102                                 TOTAL OUT =   26.20700    

                        NET (IN - OUT) = -0.1318359E-01                        NET (IN - OUT) =  0.1907349E-05
                 DISCREPANCY (PERCENT) = -0.2982649E-03                 DISCREPANCY (PERCENT) =  0.7278013E-05
                                              FLOW ERR (QIN-QOUT-DV) = -0.9536743E-06 [L3/T]




 >>>>>>>>>>>>>>>>>>>>>>>>>>>>>>>>>>>>>>>>>>>>>>>>>>>>>>>FOR COMPONENT NO. 01<<<<<<<<<<<<<<<<<<<<<<<<<<<<<<<<<<<<<<<<<<<<<<<<<<<<<<<


                                            -------------------------------------------
                                                      TRANSPORT STEP NO.   46
                                            -------------------------------------------

 TOTAL ELAPSED TIME SINCE BEGINNING OF SIMULATION =   49680.00    D   
 .....................................................................

                     CUMULATIVE MASS BUDGETS AT END OF TRANSPORT STEP   46, TIME STEP    1, STRESS PERIOD    3
                     -----------------------------------------------------------------------------------------

                                                             IN                           OUT
                                                      ----------------             ----------------
                               CONSTANT CONCENTRATION:    0.000000                    0.000000    
                                        CONSTANT HEAD:    620.1192                   -344.3884    
                                               STREAM:    0.000000                   -275.7350    
                               MASS STOR (FLOW MODEL):   0.5161509E-02              -0.6986623E-07
                                MASS STORAGE (SOLUTE):    0.000000                    0.000000    
                            ---------------------------------------------------------------------------
                                              [TOTAL]:    620.1244     KG            -620.1234     KG  

                                                          NET (IN - OUT):   0.9765625E-03
                                                   DISCREPANCY (PERCENT):   0.1574786E-03
     2 CALLS TO GCG PACKAGE FOR TRANSPORT TIME STEP    47 IN FLOW TIME STEP     1 STRESS PERIOD     3
      2 TOTAL ITERATIONS
  MAXIMUM CONCENTRATION CHANGES FOR EACH ITERATION:
  MAX. CHANGE LAYER,ROW,COL MAX. CHANGE LAYER,ROW,COL MAX. CHANGE LAYER,ROW,COL MAX. CHANGE LAYER,ROW,COL MAX. CHANGE LAYER,ROW,COL
 ------------------------------------------------------------------------------------------------------------------------------------
    0.000     (  1,  1,  1)   0.000     (  1,  1,  1)


                     STREAM MASS BUDGETS AT END OF TRANSPORT STEP   47, TIME STEP    1, STRESS PERIOD    3 FOR COMPONENT   1
                     -------------------------------------------------------------------------------------------------------

                                         CUMULATIVE MASS [M]                                     MASS FOR THIS TIME STEP [M]
                                         -------------------                                    --------------
                      STREAM DEPLETION =   823.9951                          STREAM DEPLETION =   16.83469    
                      INFLOW TO STREAM =   3345.519                          INFLOW TO STREAM =   8.325000    
                          GW TO STREAM =   276.7340                              GW TO STREAM =  0.9990391    
                         PRECIPITATION =   0.000000                             PRECIPITATION =   0.000000    
                                RUNOFF =   0.000000                                    RUNOFF =   0.000000    
                CONSTANT CONCENTRATION =   0.000000                    CONSTANT CONCENTRATION =   0.000000    
                             MASS GAIN =   0.000000                                 MASS GAIN =   0.000000    
                                         -------------------                                    --------------
                              TOTAL IN =   4446.248                                  TOTAL IN =   26.15873    

                   STREAM ACCUMULATION =   1781.971                       STREAM ACCUMULATION =   10.25904    
                        STREAM OUTFLOW =   2664.290                            STREAM OUTFLOW =   15.89969    
                          STREAM TO GW =   0.000000                              STREAM TO GW =   0.000000    
                CONSTANT CONCENTRATION =   0.000000                    CONSTANT CONCENTRATION =   0.000000    
                           EVAPORATION =   0.000000                               EVAPORATION =   0.000000    
                             MASS LOSS =   0.000000                                 MASS LOSS =   0.000000    
                                         -------------------                                    --------------
                             TOTAL OUT =   4446.261                                 TOTAL OUT =   26.15873    

                        NET (IN - OUT) = -0.1318359E-01                        NET (IN - OUT) =   0.000000    
                 DISCREPANCY (PERCENT) = -0.2965101E-03                 DISCREPANCY (PERCENT) =   0.000000    
                                              FLOW ERR (QIN-QOUT-DV) = -0.9536743E-06 [L3/T]




 >>>>>>>>>>>>>>>>>>>>>>>>>>>>>>>>>>>>>>>>>>>>>>>>>>>>>>>FOR COMPONENT NO. 01<<<<<<<<<<<<<<<<<<<<<<<<<<<<<<<<<<<<<<<<<<<<<<<<<<<<<<<


                                            -------------------------------------------
                                                      TRANSPORT STEP NO.   47
                                            -------------------------------------------

 TOTAL ELAPSED TIME SINCE BEGINNING OF SIMULATION =   49860.00    D   
 .....................................................................

                     CUMULATIVE MASS BUDGETS AT END OF TRANSPORT STEP   47, TIME STEP    1, STRESS PERIOD    3
                     -----------------------------------------------------------------------------------------

                                                             IN                           OUT
                                                      ----------------             ----------------
                               CONSTANT CONCENTRATION:    0.000000                    0.000000    
                                        CONSTANT HEAD:    622.3660                   -345.6362    
                                               STREAM:    0.000000                   -276.7340    
                               MASS STOR (FLOW MODEL):   0.5161509E-02              -0.6986623E-07
                                MASS STORAGE (SOLUTE):    0.000000                    0.000000    
                            ---------------------------------------------------------------------------
                                              [TOTAL]:    622.3712     KG            -622.3702     KG  

                                                          NET (IN - OUT):   0.9765625E-03
                                                   DISCREPANCY (PERCENT):   0.1569101E-03
     2 CALLS TO GCG PACKAGE FOR TRANSPORT TIME STEP    48 IN FLOW TIME STEP     1 STRESS PERIOD     3
      2 TOTAL ITERATIONS
  MAXIMUM CONCENTRATION CHANGES FOR EACH ITERATION:
  MAX. CHANGE LAYER,ROW,COL MAX. CHANGE LAYER,ROW,COL MAX. CHANGE LAYER,ROW,COL MAX. CHANGE LAYER,ROW,COL MAX. CHANGE LAYER,ROW,COL
 ------------------------------------------------------------------------------------------------------------------------------------
    0.000     (  1,  1,  1)   0.000     (  1,  1,  1)


                     STREAM MASS BUDGETS AT END OF TRANSPORT STEP   48, TIME STEP    1, STRESS PERIOD    3 FOR COMPONENT   1
                     -------------------------------------------------------------------------------------------------------

                                         CUMULATIVE MASS [M]                                     MASS FOR THIS TIME STEP [M]
                                         -------------------                                    --------------
                      STREAM DEPLETION =   840.7806                          STREAM DEPLETION =   16.78558    
                      INFLOW TO STREAM =   3353.844                          INFLOW TO STREAM =   8.325000    
                          GW TO STREAM =   277.7331                              GW TO STREAM =  0.9990391    
                         PRECIPITATION =   0.000000                             PRECIPITATION =   0.000000    
                                RUNOFF =   0.000000                                    RUNOFF =   0.000000    
                CONSTANT CONCENTRATION =   0.000000                    CONSTANT CONCENTRATION =   0.000000    
                             MASS GAIN =   0.000000                                 MASS GAIN =   0.000000    
                                         -------------------                                    --------------
                              TOTAL IN =   4472.357                                  TOTAL IN =   26.10962    

                   STREAM ACCUMULATION =   1791.834                       STREAM ACCUMULATION =   9.863738    
                        STREAM OUTFLOW =   2680.536                            STREAM OUTFLOW =   16.24589    
                          STREAM TO GW =   0.000000                              STREAM TO GW =   0.000000    
                CONSTANT CONCENTRATION =   0.000000                    CONSTANT CONCENTRATION =   0.000000    
                           EVAPORATION =   0.000000                               EVAPORATION =   0.000000    
                             MASS LOSS =   0.000000                                 MASS LOSS =   0.000000    
                                         -------------------                                    --------------
                             TOTAL OUT =   4472.370                                 TOTAL OUT =   26.10963    

                        NET (IN - OUT) = -0.1269531E-01                        NET (IN - OUT) = -0.7629395E-05
                 DISCREPANCY (PERCENT) = -0.2838614E-03                 DISCREPANCY (PERCENT) = -0.2922062E-04
                                              FLOW ERR (QIN-QOUT-DV) = -0.9536743E-06 [L3/T]




 >>>>>>>>>>>>>>>>>>>>>>>>>>>>>>>>>>>>>>>>>>>>>>>>>>>>>>>FOR COMPONENT NO. 01<<<<<<<<<<<<<<<<<<<<<<<<<<<<<<<<<<<<<<<<<<<<<<<<<<<<<<<


                                            -------------------------------------------
                                                      TRANSPORT STEP NO.   48
                                            -------------------------------------------

 TOTAL ELAPSED TIME SINCE BEGINNING OF SIMULATION =   50040.00    D   
 .....................................................................

                     CUMULATIVE MASS BUDGETS AT END OF TRANSPORT STEP   48, TIME STEP    1, STRESS PERIOD    3
                     -----------------------------------------------------------------------------------------

                                                             IN                           OUT
                                                      ----------------             ----------------
                               CONSTANT CONCENTRATION:    0.000000                    0.000000    
                                        CONSTANT HEAD:    624.6129                   -346.8840    
                                               STREAM:    0.000000                   -277.7331    
                               MASS STOR (FLOW MODEL):   0.5161509E-02              -0.6986623E-07
                                MASS STORAGE (SOLUTE):    0.000000                    0.000000    
                            ---------------------------------------------------------------------------
                                              [TOTAL]:    624.6180     KG            -624.6171     KG  

                                                          NET (IN - OUT):   0.9765625E-03
                                                   DISCREPANCY (PERCENT):   0.1563457E-03
     2 CALLS TO GCG PACKAGE FOR TRANSPORT TIME STEP    49 IN FLOW TIME STEP     1 STRESS PERIOD     3
      2 TOTAL ITERATIONS
  MAXIMUM CONCENTRATION CHANGES FOR EACH ITERATION:
  MAX. CHANGE LAYER,ROW,COL MAX. CHANGE LAYER,ROW,COL MAX. CHANGE LAYER,ROW,COL MAX. CHANGE LAYER,ROW,COL MAX. CHANGE LAYER,ROW,COL
 ------------------------------------------------------------------------------------------------------------------------------------
    0.000     (  1,  1,  1)   0.000     (  1,  1,  1)


                     STREAM MASS BUDGETS AT END OF TRANSPORT STEP   49, TIME STEP    1, STRESS PERIOD    3 FOR COMPONENT   1
                     -------------------------------------------------------------------------------------------------------

                                         CUMULATIVE MASS [M]                                     MASS FOR THIS TIME STEP [M]
                                         -------------------                                    --------------
                      STREAM DEPLETION =   857.5161                          STREAM DEPLETION =   16.73550    
                      INFLOW TO STREAM =   3362.168                          INFLOW TO STREAM =   8.325000    
                          GW TO STREAM =   278.7321                              GW TO STREAM =  0.9990391    
                         PRECIPITATION =   0.000000                             PRECIPITATION =   0.000000    
                                RUNOFF =   0.000000                                    RUNOFF =   0.000000    
                CONSTANT CONCENTRATION =   0.000000                    CONSTANT CONCENTRATION =   0.000000    
                             MASS GAIN =   0.000000                                 MASS GAIN =   0.000000    
                                         -------------------                                    --------------
                              TOTAL IN =   4498.417                                  TOTAL IN =   26.05954    

                   STREAM ACCUMULATION =   1801.301                       STREAM ACCUMULATION =   9.466655    
                        STREAM OUTFLOW =   2697.129                            STREAM OUTFLOW =   16.59289    
                          STREAM TO GW =   0.000000                              STREAM TO GW =   0.000000    
                CONSTANT CONCENTRATION =   0.000000                    CONSTANT CONCENTRATION =   0.000000    
                           EVAPORATION =   0.000000                               EVAPORATION =   0.000000    
                             MASS LOSS =   0.000000                                 MASS LOSS =   0.000000    
                                         -------------------                                    --------------
                             TOTAL OUT =   4498.430                                 TOTAL OUT =   26.05954    

                        NET (IN - OUT) = -0.1269531E-01                        NET (IN - OUT) =   0.000000    
                 DISCREPANCY (PERCENT) = -0.2822169E-03                 DISCREPANCY (PERCENT) =   0.000000    
                                              FLOW ERR (QIN-QOUT-DV) = -0.9536743E-06 [L3/T]




 >>>>>>>>>>>>>>>>>>>>>>>>>>>>>>>>>>>>>>>>>>>>>>>>>>>>>>>FOR COMPONENT NO. 01<<<<<<<<<<<<<<<<<<<<<<<<<<<<<<<<<<<<<<<<<<<<<<<<<<<<<<<


                                            -------------------------------------------
                                                      TRANSPORT STEP NO.   49
                                            -------------------------------------------

 TOTAL ELAPSED TIME SINCE BEGINNING OF SIMULATION =   50220.00    D   
 .....................................................................

                     CUMULATIVE MASS BUDGETS AT END OF TRANSPORT STEP   49, TIME STEP    1, STRESS PERIOD    3
                     -----------------------------------------------------------------------------------------

                                                             IN                           OUT
                                                      ----------------             ----------------
                               CONSTANT CONCENTRATION:    0.000000                    0.000000    
                                        CONSTANT HEAD:    626.8597                   -348.1317    
                                               STREAM:    0.000000                   -278.7321    
                               MASS STOR (FLOW MODEL):   0.5161509E-02              -0.6986623E-07
                                MASS STORAGE (SOLUTE):    0.000000                    0.000000    
                            ---------------------------------------------------------------------------
                                              [TOTAL]:    626.8649     KG            -626.8639     KG  

                                                          NET (IN - OUT):   0.9765625E-03
                                                   DISCREPANCY (PERCENT):   0.1557853E-03
     2 CALLS TO GCG PACKAGE FOR TRANSPORT TIME STEP    50 IN FLOW TIME STEP     1 STRESS PERIOD     3
      2 TOTAL ITERATIONS
  MAXIMUM CONCENTRATION CHANGES FOR EACH ITERATION:
  MAX. CHANGE LAYER,ROW,COL MAX. CHANGE LAYER,ROW,COL MAX. CHANGE LAYER,ROW,COL MAX. CHANGE LAYER,ROW,COL MAX. CHANGE LAYER,ROW,COL
 ------------------------------------------------------------------------------------------------------------------------------------
    0.000     (  1,  1,  1)   0.000     (  1,  1,  1)


                     STREAM MASS BUDGETS AT END OF TRANSPORT STEP   50, TIME STEP    1, STRESS PERIOD    3 FOR COMPONENT   1
                     -------------------------------------------------------------------------------------------------------

                                         CUMULATIVE MASS [M]                                     MASS FOR THIS TIME STEP [M]
                                         -------------------                                    --------------
                      STREAM DEPLETION =   874.2009                          STREAM DEPLETION =   16.68474    
                      INFLOW TO STREAM =   3370.493                          INFLOW TO STREAM =   8.325000    
                          GW TO STREAM =   279.7312                              GW TO STREAM =  0.9990391    
                         PRECIPITATION =   0.000000                             PRECIPITATION =   0.000000    
                                RUNOFF =   0.000000                                    RUNOFF =   0.000000    
                CONSTANT CONCENTRATION =   0.000000                    CONSTANT CONCENTRATION =   0.000000    
                             MASS GAIN =   0.000000                                 MASS GAIN =   0.000000    
                                         -------------------                                    --------------
                              TOTAL IN =   4524.426                                  TOTAL IN =   26.00878    

                   STREAM ACCUMULATION =   1810.370                       STREAM ACCUMULATION =   9.069031    
                        STREAM OUTFLOW =   2714.068                            STREAM OUTFLOW =   16.93975    
                          STREAM TO GW =   0.000000                              STREAM TO GW =   0.000000    
                CONSTANT CONCENTRATION =   0.000000                    CONSTANT CONCENTRATION =   0.000000    
                           EVAPORATION =   0.000000                               EVAPORATION =   0.000000    
                             MASS LOSS =   0.000000                                 MASS LOSS =   0.000000    
                                         -------------------                                    --------------
                             TOTAL OUT =   4524.438                                 TOTAL OUT =   26.00878    

                        NET (IN - OUT) = -0.1269531E-01                        NET (IN - OUT) = -0.3814697E-05
                 DISCREPANCY (PERCENT) = -0.2805946E-03                 DISCREPANCY (PERCENT) = -0.1466696E-04
                                              FLOW ERR (QIN-QOUT-DV) = -0.9536743E-06 [L3/T]




 >>>>>>>>>>>>>>>>>>>>>>>>>>>>>>>>>>>>>>>>>>>>>>>>>>>>>>>FOR COMPONENT NO. 01<<<<<<<<<<<<<<<<<<<<<<<<<<<<<<<<<<<<<<<<<<<<<<<<<<<<<<<


                                            -------------------------------------------
                                                      TRANSPORT STEP NO.   50
                                            -------------------------------------------

 TOTAL ELAPSED TIME SINCE BEGINNING OF SIMULATION =   50400.00    D   
 .....................................................................

                     CUMULATIVE MASS BUDGETS AT END OF TRANSPORT STEP   50, TIME STEP    1, STRESS PERIOD    3
                     -----------------------------------------------------------------------------------------

                                                             IN                           OUT
                                                      ----------------             ----------------
                               CONSTANT CONCENTRATION:    0.000000                    0.000000    
                                        CONSTANT HEAD:    629.1065                   -349.3795    
                                               STREAM:    0.000000                   -279.7312    
                               MASS STOR (FLOW MODEL):   0.5161509E-02              -0.6986623E-07
                                MASS STORAGE (SOLUTE):    0.000000                    0.000000    
                            ---------------------------------------------------------------------------
                                              [TOTAL]:    629.1117     KG            -629.1107     KG  

                                                          NET (IN - OUT):   0.9765625E-03
                                                   DISCREPANCY (PERCENT):   0.1552289E-03
     2 CALLS TO GCG PACKAGE FOR TRANSPORT TIME STEP    51 IN FLOW TIME STEP     1 STRESS PERIOD     3
      2 TOTAL ITERATIONS
  MAXIMUM CONCENTRATION CHANGES FOR EACH ITERATION:
  MAX. CHANGE LAYER,ROW,COL MAX. CHANGE LAYER,ROW,COL MAX. CHANGE LAYER,ROW,COL MAX. CHANGE LAYER,ROW,COL MAX. CHANGE LAYER,ROW,COL
 ------------------------------------------------------------------------------------------------------------------------------------
    0.000     (  1,  1,  1)   0.000     (  1,  1,  1)


                     STREAM MASS BUDGETS AT END OF TRANSPORT STEP   51, TIME STEP    1, STRESS PERIOD    3 FOR COMPONENT   1
                     -------------------------------------------------------------------------------------------------------

                                         CUMULATIVE MASS [M]                                     MASS FOR THIS TIME STEP [M]
                                         -------------------                                    --------------
                      STREAM DEPLETION =   890.8341                          STREAM DEPLETION =   16.63321    
                      INFLOW TO STREAM =   3378.818                          INFLOW TO STREAM =   8.325000    
                          GW TO STREAM =   280.7303                              GW TO STREAM =  0.9990391    
                         PRECIPITATION =   0.000000                             PRECIPITATION =   0.000000    
                                RUNOFF =   0.000000                                    RUNOFF =   0.000000    
                CONSTANT CONCENTRATION =   0.000000                    CONSTANT CONCENTRATION =   0.000000    
                             MASS GAIN =   0.000000                                 MASS GAIN =   0.000000    
                                         -------------------                                    --------------
                              TOTAL IN =   4550.383                                  TOTAL IN =   25.95725    

                   STREAM ACCUMULATION =   1819.042                       STREAM ACCUMULATION =   8.671679    
                        STREAM OUTFLOW =   2731.354                            STREAM OUTFLOW =   17.28557    
                          STREAM TO GW =   0.000000                              STREAM TO GW =   0.000000    
                CONSTANT CONCENTRATION =   0.000000                    CONSTANT CONCENTRATION =   0.000000    
                           EVAPORATION =   0.000000                               EVAPORATION =   0.000000    
                             MASS LOSS =   0.000000                                 MASS LOSS =   0.000000    
                                         -------------------                                    --------------
                             TOTAL OUT =   4550.396                                 TOTAL OUT =   25.95725    

                        NET (IN - OUT) = -0.1269531E-01                        NET (IN - OUT) =  0.1907349E-05
                 DISCREPANCY (PERCENT) = -0.2789940E-03                 DISCREPANCY (PERCENT) =  0.7348037E-05
                                              FLOW ERR (QIN-QOUT-DV) = -0.9536743E-06 [L3/T]




 >>>>>>>>>>>>>>>>>>>>>>>>>>>>>>>>>>>>>>>>>>>>>>>>>>>>>>>FOR COMPONENT NO. 01<<<<<<<<<<<<<<<<<<<<<<<<<<<<<<<<<<<<<<<<<<<<<<<<<<<<<<<


                                            -------------------------------------------
                                                      TRANSPORT STEP NO.   51
                                            -------------------------------------------

 TOTAL ELAPSED TIME SINCE BEGINNING OF SIMULATION =   50580.00    D   
 .....................................................................

                     CUMULATIVE MASS BUDGETS AT END OF TRANSPORT STEP   51, TIME STEP    1, STRESS PERIOD    3
                     -----------------------------------------------------------------------------------------

                                                             IN                           OUT
                                                      ----------------             ----------------
                               CONSTANT CONCENTRATION:    0.000000                    0.000000    
                                        CONSTANT HEAD:    631.3533                   -350.6273    
                                               STREAM:    0.000000                   -280.7303    
                               MASS STOR (FLOW MODEL):   0.5161509E-02              -0.6986623E-07
                                MASS STORAGE (SOLUTE):    0.000000                    0.000000    
                            ---------------------------------------------------------------------------
                                              [TOTAL]:    631.3585     KG            -631.3575     KG  

                                                          NET (IN - OUT):   0.9765625E-03
                                                   DISCREPANCY (PERCENT):   0.1546765E-03
     2 CALLS TO GCG PACKAGE FOR TRANSPORT TIME STEP    52 IN FLOW TIME STEP     1 STRESS PERIOD     3
      2 TOTAL ITERATIONS
  MAXIMUM CONCENTRATION CHANGES FOR EACH ITERATION:
  MAX. CHANGE LAYER,ROW,COL MAX. CHANGE LAYER,ROW,COL MAX. CHANGE LAYER,ROW,COL MAX. CHANGE LAYER,ROW,COL MAX. CHANGE LAYER,ROW,COL
 ------------------------------------------------------------------------------------------------------------------------------------
    0.000     (  1,  1,  1)   0.000     (  1,  1,  1)


                     STREAM MASS BUDGETS AT END OF TRANSPORT STEP   52, TIME STEP    1, STRESS PERIOD    3 FOR COMPONENT   1
                     -------------------------------------------------------------------------------------------------------

                                         CUMULATIVE MASS [M]                                     MASS FOR THIS TIME STEP [M]
                                         -------------------                                    --------------
                      STREAM DEPLETION =   907.4151                          STREAM DEPLETION =   16.58101    
                      INFLOW TO STREAM =   3387.143                          INFLOW TO STREAM =   8.325000    
                          GW TO STREAM =   281.7293                              GW TO STREAM =  0.9990391    
                         PRECIPITATION =   0.000000                             PRECIPITATION =   0.000000    
                                RUNOFF =   0.000000                                    RUNOFF =   0.000000    
                CONSTANT CONCENTRATION =   0.000000                    CONSTANT CONCENTRATION =   0.000000    
                             MASS GAIN =   0.000000                                 MASS GAIN =   0.000000    
                                         -------------------                                    --------------
                              TOTAL IN =   4576.288                                  TOTAL IN =   25.90505    

                   STREAM ACCUMULATION =   1827.317                       STREAM ACCUMULATION =   8.275576    
                        STREAM OUTFLOW =   2748.983                            STREAM OUTFLOW =   17.62948    
                          STREAM TO GW =   0.000000                              STREAM TO GW =   0.000000    
                CONSTANT CONCENTRATION =   0.000000                    CONSTANT CONCENTRATION =   0.000000    
                           EVAPORATION =   0.000000                               EVAPORATION =   0.000000    
                             MASS LOSS =   0.000000                                 MASS LOSS =   0.000000    
                                         -------------------                                    --------------
                             TOTAL OUT =   4576.301                                 TOTAL OUT =   25.90506    

                        NET (IN - OUT) = -0.1318359E-01                        NET (IN - OUT) = -0.3814697E-05
                 DISCREPANCY (PERCENT) = -0.2880845E-03                 DISCREPANCY (PERCENT) = -0.1472569E-04
                                              FLOW ERR (QIN-QOUT-DV) = -0.9536743E-06 [L3/T]




 >>>>>>>>>>>>>>>>>>>>>>>>>>>>>>>>>>>>>>>>>>>>>>>>>>>>>>>FOR COMPONENT NO. 01<<<<<<<<<<<<<<<<<<<<<<<<<<<<<<<<<<<<<<<<<<<<<<<<<<<<<<<


                                            -------------------------------------------
                                                      TRANSPORT STEP NO.   52
                                            -------------------------------------------

 TOTAL ELAPSED TIME SINCE BEGINNING OF SIMULATION =   50760.00    D   
 .....................................................................

                     CUMULATIVE MASS BUDGETS AT END OF TRANSPORT STEP   52, TIME STEP    1, STRESS PERIOD    3
                     -----------------------------------------------------------------------------------------

                                                             IN                           OUT
                                                      ----------------             ----------------
                               CONSTANT CONCENTRATION:    0.000000                    0.000000    
                                        CONSTANT HEAD:    633.6002                   -351.8751    
                                               STREAM:    0.000000                   -281.7293    
                               MASS STOR (FLOW MODEL):   0.5161509E-02              -0.6986623E-07
                                MASS STORAGE (SOLUTE):    0.000000                    0.000000    
                            ---------------------------------------------------------------------------
                                              [TOTAL]:    633.6053     KG            -633.6044     KG  

                                                          NET (IN - OUT):   0.9765625E-03
                                                   DISCREPANCY (PERCENT):   0.1541280E-03
     2 CALLS TO GCG PACKAGE FOR TRANSPORT TIME STEP    53 IN FLOW TIME STEP     1 STRESS PERIOD     3
      2 TOTAL ITERATIONS
  MAXIMUM CONCENTRATION CHANGES FOR EACH ITERATION:
  MAX. CHANGE LAYER,ROW,COL MAX. CHANGE LAYER,ROW,COL MAX. CHANGE LAYER,ROW,COL MAX. CHANGE LAYER,ROW,COL MAX. CHANGE LAYER,ROW,COL
 ------------------------------------------------------------------------------------------------------------------------------------
    0.000     (  1,  1,  1)   0.000     (  1,  1,  1)


                     STREAM MASS BUDGETS AT END OF TRANSPORT STEP   53, TIME STEP    1, STRESS PERIOD    3 FOR COMPONENT   1
                     -------------------------------------------------------------------------------------------------------

                                         CUMULATIVE MASS [M]                                     MASS FOR THIS TIME STEP [M]
                                         -------------------                                    --------------
                      STREAM DEPLETION =   923.9434                          STREAM DEPLETION =   16.52828    
                      INFLOW TO STREAM =   3395.468                          INFLOW TO STREAM =   8.325000    
                          GW TO STREAM =   282.7284                              GW TO STREAM =  0.9990391    
                         PRECIPITATION =   0.000000                             PRECIPITATION =   0.000000    
                                RUNOFF =   0.000000                                    RUNOFF =   0.000000    
                CONSTANT CONCENTRATION =   0.000000                    CONSTANT CONCENTRATION =   0.000000    
                             MASS GAIN =   0.000000                                 MASS GAIN =   0.000000    
                                         -------------------                                    --------------
                              TOTAL IN =   4602.140                                  TOTAL IN =   25.85232    

                   STREAM ACCUMULATION =   1835.199                       STREAM ACCUMULATION =   7.881677    
                        STREAM OUTFLOW =   2766.954                            STREAM OUTFLOW =   17.97065    
                          STREAM TO GW =   0.000000                              STREAM TO GW =   0.000000    
                CONSTANT CONCENTRATION =   0.000000                    CONSTANT CONCENTRATION =   0.000000    
                           EVAPORATION =   0.000000                               EVAPORATION =   0.000000    
                             MASS LOSS =   0.000000                                 MASS LOSS =   0.000000    
                                         -------------------                                    --------------
                             TOTAL OUT =   4602.153                                 TOTAL OUT =   25.85232    

                        NET (IN - OUT) = -0.1318359E-01                        NET (IN - OUT) = -0.5722046E-05
                 DISCREPANCY (PERCENT) = -0.2864662E-03                 DISCREPANCY (PERCENT) = -0.2213359E-04
                                              FLOW ERR (QIN-QOUT-DV) = -0.9536743E-06 [L3/T]




 >>>>>>>>>>>>>>>>>>>>>>>>>>>>>>>>>>>>>>>>>>>>>>>>>>>>>>>FOR COMPONENT NO. 01<<<<<<<<<<<<<<<<<<<<<<<<<<<<<<<<<<<<<<<<<<<<<<<<<<<<<<<


                                            -------------------------------------------
                                                      TRANSPORT STEP NO.   53
                                            -------------------------------------------

 TOTAL ELAPSED TIME SINCE BEGINNING OF SIMULATION =   50940.00    D   
 .....................................................................

                     CUMULATIVE MASS BUDGETS AT END OF TRANSPORT STEP   53, TIME STEP    1, STRESS PERIOD    3
                     -----------------------------------------------------------------------------------------

                                                             IN                           OUT
                                                      ----------------             ----------------
                               CONSTANT CONCENTRATION:    0.000000                    0.000000    
                                        CONSTANT HEAD:    635.8470                   -353.1228    
                                               STREAM:    0.000000                   -282.7284    
                               MASS STOR (FLOW MODEL):   0.5161509E-02              -0.6986623E-07
                                MASS STORAGE (SOLUTE):    0.000000                    0.000000    
                            ---------------------------------------------------------------------------
                                              [TOTAL]:    635.8522     KG            -635.8512     KG  

                                                          NET (IN - OUT):   0.9765625E-03
                                                   DISCREPANCY (PERCENT):   0.1535834E-03
     2 CALLS TO GCG PACKAGE FOR TRANSPORT TIME STEP    54 IN FLOW TIME STEP     1 STRESS PERIOD     3
      2 TOTAL ITERATIONS
  MAXIMUM CONCENTRATION CHANGES FOR EACH ITERATION:
  MAX. CHANGE LAYER,ROW,COL MAX. CHANGE LAYER,ROW,COL MAX. CHANGE LAYER,ROW,COL MAX. CHANGE LAYER,ROW,COL MAX. CHANGE LAYER,ROW,COL
 ------------------------------------------------------------------------------------------------------------------------------------
    0.000     (  1,  1,  1)   0.000     (  1,  1,  1)


                     STREAM MASS BUDGETS AT END OF TRANSPORT STEP   54, TIME STEP    1, STRESS PERIOD    3 FOR COMPONENT   1
                     -------------------------------------------------------------------------------------------------------

                                         CUMULATIVE MASS [M]                                     MASS FOR THIS TIME STEP [M]
                                         -------------------                                    --------------
                      STREAM DEPLETION =   940.4183                          STREAM DEPLETION =   16.47494    
                      INFLOW TO STREAM =   3403.793                          INFLOW TO STREAM =   8.325000    
                          GW TO STREAM =   283.7274                              GW TO STREAM =  0.9990391    
                         PRECIPITATION =   0.000000                             PRECIPITATION =   0.000000    
                                RUNOFF =   0.000000                                    RUNOFF =   0.000000    
                CONSTANT CONCENTRATION =   0.000000                    CONSTANT CONCENTRATION =   0.000000    
                             MASS GAIN =   0.000000                                 MASS GAIN =   0.000000    
                                         -------------------                                    --------------
                              TOTAL IN =   4627.939                                  TOTAL IN =   25.79898    

                   STREAM ACCUMULATION =   1842.690                       STREAM ACCUMULATION =   7.490708    
                        STREAM OUTFLOW =   2785.262                            STREAM OUTFLOW =   18.30828    
                          STREAM TO GW =   0.000000                              STREAM TO GW =   0.000000    
                CONSTANT CONCENTRATION =   0.000000                    CONSTANT CONCENTRATION =   0.000000    
                           EVAPORATION =   0.000000                               EVAPORATION =   0.000000    
                             MASS LOSS =   0.000000                                 MASS LOSS =   0.000000    
                                         -------------------                                    --------------
                             TOTAL OUT =   4627.952                                 TOTAL OUT =   25.79899    

                        NET (IN - OUT) = -0.1318359E-01                        NET (IN - OUT) = -0.7629395E-05
                 DISCREPANCY (PERCENT) = -0.2848693E-03                 DISCREPANCY (PERCENT) = -0.2957246E-04
                                              FLOW ERR (QIN-QOUT-DV) = -0.9536743E-06 [L3/T]




 >>>>>>>>>>>>>>>>>>>>>>>>>>>>>>>>>>>>>>>>>>>>>>>>>>>>>>>FOR COMPONENT NO. 01<<<<<<<<<<<<<<<<<<<<<<<<<<<<<<<<<<<<<<<<<<<<<<<<<<<<<<<


                                            -------------------------------------------
                                                      TRANSPORT STEP NO.   54
                                            -------------------------------------------

 TOTAL ELAPSED TIME SINCE BEGINNING OF SIMULATION =   51120.00    D   
 .....................................................................

                     CUMULATIVE MASS BUDGETS AT END OF TRANSPORT STEP   54, TIME STEP    1, STRESS PERIOD    3
                     -----------------------------------------------------------------------------------------

                                                             IN                           OUT
                                                      ----------------             ----------------
                               CONSTANT CONCENTRATION:    0.000000                    0.000000    
                                        CONSTANT HEAD:    638.0938                   -354.3706    
                                               STREAM:    0.000000                   -283.7274    
                               MASS STOR (FLOW MODEL):   0.5161509E-02              -0.6986623E-07
                                MASS STORAGE (SOLUTE):    0.000000                    0.000000    
                            ---------------------------------------------------------------------------
                                              [TOTAL]:    638.0990     KG            -638.0980     KG  

                                                          NET (IN - OUT):   0.9765625E-03
                                                   DISCREPANCY (PERCENT):   0.1530426E-03
     2 CALLS TO GCG PACKAGE FOR TRANSPORT TIME STEP    55 IN FLOW TIME STEP     1 STRESS PERIOD     3
      2 TOTAL ITERATIONS
  MAXIMUM CONCENTRATION CHANGES FOR EACH ITERATION:
  MAX. CHANGE LAYER,ROW,COL MAX. CHANGE LAYER,ROW,COL MAX. CHANGE LAYER,ROW,COL MAX. CHANGE LAYER,ROW,COL MAX. CHANGE LAYER,ROW,COL
 ------------------------------------------------------------------------------------------------------------------------------------
    0.000     (  1,  1,  1)   0.000     (  1,  1,  1)


                     STREAM MASS BUDGETS AT END OF TRANSPORT STEP   55, TIME STEP    1, STRESS PERIOD    3 FOR COMPONENT   1
                     -------------------------------------------------------------------------------------------------------

                                         CUMULATIVE MASS [M]                                     MASS FOR THIS TIME STEP [M]
                                         -------------------                                    --------------
                      STREAM DEPLETION =   956.8395                          STREAM DEPLETION =   16.42127    
                      INFLOW TO STREAM =   3412.118                          INFLOW TO STREAM =   8.325000    
                          GW TO STREAM =   284.7265                              GW TO STREAM =  0.9990391    
                         PRECIPITATION =   0.000000                             PRECIPITATION =   0.000000    
                                RUNOFF =   0.000000                                    RUNOFF =   0.000000    
                CONSTANT CONCENTRATION =   0.000000                    CONSTANT CONCENTRATION =   0.000000    
                             MASS GAIN =   0.000000                                 MASS GAIN =   0.000000    
                                         -------------------                                    --------------
                              TOTAL IN =   4653.684                                  TOTAL IN =   25.74531    

                   STREAM ACCUMULATION =   1849.793                       STREAM ACCUMULATION =   7.103671    
                        STREAM OUTFLOW =   2803.904                            STREAM OUTFLOW =   18.64165    
                          STREAM TO GW =   0.000000                              STREAM TO GW =   0.000000    
                CONSTANT CONCENTRATION =   0.000000                    CONSTANT CONCENTRATION =   0.000000    
                           EVAPORATION =   0.000000                               EVAPORATION =   0.000000    
                             MASS LOSS =   0.000000                                 MASS LOSS =   0.000000    
                                         -------------------                                    --------------
                             TOTAL OUT =   4653.697                                 TOTAL OUT =   25.74532    

                        NET (IN - OUT) = -0.1318359E-01                        NET (IN - OUT) = -0.3814697E-05
                 DISCREPANCY (PERCENT) = -0.2832933E-03                 DISCREPANCY (PERCENT) = -0.1481705E-04
                                              FLOW ERR (QIN-QOUT-DV) = -0.9536743E-06 [L3/T]




 >>>>>>>>>>>>>>>>>>>>>>>>>>>>>>>>>>>>>>>>>>>>>>>>>>>>>>>FOR COMPONENT NO. 01<<<<<<<<<<<<<<<<<<<<<<<<<<<<<<<<<<<<<<<<<<<<<<<<<<<<<<<


                                            -------------------------------------------
                                                      TRANSPORT STEP NO.   55
                                            -------------------------------------------

 TOTAL ELAPSED TIME SINCE BEGINNING OF SIMULATION =   51300.00    D   
 .....................................................................

                     CUMULATIVE MASS BUDGETS AT END OF TRANSPORT STEP   55, TIME STEP    1, STRESS PERIOD    3
                     -----------------------------------------------------------------------------------------

                                                             IN                           OUT
                                                      ----------------             ----------------
                               CONSTANT CONCENTRATION:    0.000000                    0.000000    
                                        CONSTANT HEAD:    640.3406                   -355.6184    
                                               STREAM:    0.000000                   -284.7265    
                               MASS STOR (FLOW MODEL):   0.5161509E-02              -0.6986623E-07
                                MASS STORAGE (SOLUTE):    0.000000                    0.000000    
                            ---------------------------------------------------------------------------
                                              [TOTAL]:    640.3458     KG            -640.3448     KG  

                                                          NET (IN - OUT):   0.9765625E-03
                                                   DISCREPANCY (PERCENT):   0.1525056E-03
     2 CALLS TO GCG PACKAGE FOR TRANSPORT TIME STEP    56 IN FLOW TIME STEP     1 STRESS PERIOD     3
      2 TOTAL ITERATIONS
  MAXIMUM CONCENTRATION CHANGES FOR EACH ITERATION:
  MAX. CHANGE LAYER,ROW,COL MAX. CHANGE LAYER,ROW,COL MAX. CHANGE LAYER,ROW,COL MAX. CHANGE LAYER,ROW,COL MAX. CHANGE LAYER,ROW,COL
 ------------------------------------------------------------------------------------------------------------------------------------
    0.000     (  1,  1,  1)   0.000     (  1,  1,  1)


                     STREAM MASS BUDGETS AT END OF TRANSPORT STEP   56, TIME STEP    1, STRESS PERIOD    3 FOR COMPONENT   1
                     -------------------------------------------------------------------------------------------------------

                                         CUMULATIVE MASS [M]                                     MASS FOR THIS TIME STEP [M]
                                         -------------------                                    --------------
                      STREAM DEPLETION =   973.2066                          STREAM DEPLETION =   16.36708    
                      INFLOW TO STREAM =   3420.443                          INFLOW TO STREAM =   8.325000    
                          GW TO STREAM =   285.7255                              GW TO STREAM =  0.9990391    
                         PRECIPITATION =   0.000000                             PRECIPITATION =   0.000000    
                                RUNOFF =   0.000000                                    RUNOFF =   0.000000    
                CONSTANT CONCENTRATION =   0.000000                    CONSTANT CONCENTRATION =   0.000000    
                             MASS GAIN =   0.000000                                 MASS GAIN =   0.000000    
                                         -------------------                                    --------------
                              TOTAL IN =   4679.375                                  TOTAL IN =   25.69112    

                   STREAM ACCUMULATION =   1856.515                       STREAM ACCUMULATION =   6.721078    
                        STREAM OUTFLOW =   2822.874                            STREAM OUTFLOW =   18.97004    
                          STREAM TO GW =   0.000000                              STREAM TO GW =   0.000000    
                CONSTANT CONCENTRATION =   0.000000                    CONSTANT CONCENTRATION =   0.000000    
                           EVAPORATION =   0.000000                               EVAPORATION =   0.000000    
                             MASS LOSS =   0.000000                                 MASS LOSS =   0.000000    
                                         -------------------                                    --------------
                             TOTAL OUT =   4679.389                                 TOTAL OUT =   25.69112    

                        NET (IN - OUT) = -0.1367188E-01                        NET (IN - OUT) =  0.1907349E-05
                 DISCREPANCY (PERCENT) = -0.2921727E-03                 DISCREPANCY (PERCENT) =  0.7424154E-05
                                              FLOW ERR (QIN-QOUT-DV) = -0.9536743E-06 [L3/T]




 >>>>>>>>>>>>>>>>>>>>>>>>>>>>>>>>>>>>>>>>>>>>>>>>>>>>>>>FOR COMPONENT NO. 01<<<<<<<<<<<<<<<<<<<<<<<<<<<<<<<<<<<<<<<<<<<<<<<<<<<<<<<


                                            -------------------------------------------
                                                      TRANSPORT STEP NO.   56
                                            -------------------------------------------

 TOTAL ELAPSED TIME SINCE BEGINNING OF SIMULATION =   51480.00    D   
 .....................................................................

                     CUMULATIVE MASS BUDGETS AT END OF TRANSPORT STEP   56, TIME STEP    1, STRESS PERIOD    3
                     -----------------------------------------------------------------------------------------

                                                             IN                           OUT
                                                      ----------------             ----------------
                               CONSTANT CONCENTRATION:    0.000000                    0.000000    
                                        CONSTANT HEAD:    642.5875                   -356.8661    
                                               STREAM:    0.000000                   -285.7255    
                               MASS STOR (FLOW MODEL):   0.5161509E-02              -0.6986623E-07
                                MASS STORAGE (SOLUTE):    0.000000                    0.000000    
                            ---------------------------------------------------------------------------
                                              [TOTAL]:    642.5927     KG            -642.5917     KG  

                                                          NET (IN - OUT):   0.9765625E-03
                                                   DISCREPANCY (PERCENT):   0.1519724E-03
     2 CALLS TO GCG PACKAGE FOR TRANSPORT TIME STEP    57 IN FLOW TIME STEP     1 STRESS PERIOD     3
      2 TOTAL ITERATIONS
  MAXIMUM CONCENTRATION CHANGES FOR EACH ITERATION:
  MAX. CHANGE LAYER,ROW,COL MAX. CHANGE LAYER,ROW,COL MAX. CHANGE LAYER,ROW,COL MAX. CHANGE LAYER,ROW,COL MAX. CHANGE LAYER,ROW,COL
 ------------------------------------------------------------------------------------------------------------------------------------
    0.000     (  1,  1,  1)   0.000     (  1,  1,  1)


                     STREAM MASS BUDGETS AT END OF TRANSPORT STEP   57, TIME STEP    1, STRESS PERIOD    3 FOR COMPONENT   1
                     -------------------------------------------------------------------------------------------------------

                                         CUMULATIVE MASS [M]                                     MASS FOR THIS TIME STEP [M]
                                         -------------------                                    --------------
                      STREAM DEPLETION =   989.5193                          STREAM DEPLETION =   16.31269    
                      INFLOW TO STREAM =   3428.768                          INFLOW TO STREAM =   8.325000    
                          GW TO STREAM =   286.7246                              GW TO STREAM =  0.9990391    
                         PRECIPITATION =   0.000000                             PRECIPITATION =   0.000000    
                                RUNOFF =   0.000000                                    RUNOFF =   0.000000    
                CONSTANT CONCENTRATION =   0.000000                    CONSTANT CONCENTRATION =   0.000000    
                             MASS GAIN =   0.000000                                 MASS GAIN =   0.000000    
                                         -------------------                                    --------------
                              TOTAL IN =   4705.012                                  TOTAL IN =   25.63673    

                   STREAM ACCUMULATION =   1862.858                       STREAM ACCUMULATION =   6.343906    
                        STREAM OUTFLOW =   2842.167                            STREAM OUTFLOW =   19.29283    
                          STREAM TO GW =   0.000000                              STREAM TO GW =   0.000000    
                CONSTANT CONCENTRATION =   0.000000                    CONSTANT CONCENTRATION =   0.000000    
                           EVAPORATION =   0.000000                               EVAPORATION =   0.000000    
                             MASS LOSS =   0.000000                                 MASS LOSS =   0.000000    
                                         -------------------                                    --------------
                             TOTAL OUT =   4705.025                                 TOTAL OUT =   25.63674    

                        NET (IN - OUT) = -0.1367188E-01                        NET (IN - OUT) = -0.5722046E-05
                 DISCREPANCY (PERCENT) = -0.2905807E-03                 DISCREPANCY (PERCENT) = -0.2231971E-04
                                              FLOW ERR (QIN-QOUT-DV) = -0.9536743E-06 [L3/T]




 >>>>>>>>>>>>>>>>>>>>>>>>>>>>>>>>>>>>>>>>>>>>>>>>>>>>>>>FOR COMPONENT NO. 01<<<<<<<<<<<<<<<<<<<<<<<<<<<<<<<<<<<<<<<<<<<<<<<<<<<<<<<


                                            -------------------------------------------
                                                      TRANSPORT STEP NO.   57
                                            -------------------------------------------

 TOTAL ELAPSED TIME SINCE BEGINNING OF SIMULATION =   51660.00    D   
 .....................................................................

                     CUMULATIVE MASS BUDGETS AT END OF TRANSPORT STEP   57, TIME STEP    1, STRESS PERIOD    3
                     -----------------------------------------------------------------------------------------

                                                             IN                           OUT
                                                      ----------------             ----------------
                               CONSTANT CONCENTRATION:    0.000000                    0.000000    
                                        CONSTANT HEAD:    644.8343                   -358.1139    
                                               STREAM:    0.000000                   -286.7246    
                               MASS STOR (FLOW MODEL):   0.5161509E-02              -0.6986623E-07
                                MASS STORAGE (SOLUTE):    0.000000                    0.000000    
                            ---------------------------------------------------------------------------
                                              [TOTAL]:    644.8395     KG            -644.8385     KG  

                                                          NET (IN - OUT):   0.9765625E-03
                                                   DISCREPANCY (PERCENT):   0.1514428E-03
     2 CALLS TO GCG PACKAGE FOR TRANSPORT TIME STEP    58 IN FLOW TIME STEP     1 STRESS PERIOD     3
      2 TOTAL ITERATIONS
  MAXIMUM CONCENTRATION CHANGES FOR EACH ITERATION:
  MAX. CHANGE LAYER,ROW,COL MAX. CHANGE LAYER,ROW,COL MAX. CHANGE LAYER,ROW,COL MAX. CHANGE LAYER,ROW,COL MAX. CHANGE LAYER,ROW,COL
 ------------------------------------------------------------------------------------------------------------------------------------
    0.000     (  1,  1,  1)   0.000     (  1,  1,  1)


                     STREAM MASS BUDGETS AT END OF TRANSPORT STEP   58, TIME STEP    1, STRESS PERIOD    3 FOR COMPONENT   1
                     -------------------------------------------------------------------------------------------------------

                                         CUMULATIVE MASS [M]                                     MASS FOR THIS TIME STEP [M]
                                         -------------------                                    --------------
                      STREAM DEPLETION =   1005.777                          STREAM DEPLETION =   16.25788    
                      INFLOW TO STREAM =   3437.093                          INFLOW TO STREAM =   8.325000    
                          GW TO STREAM =   287.7236                              GW TO STREAM =  0.9990391    
                         PRECIPITATION =   0.000000                             PRECIPITATION =   0.000000    
                                RUNOFF =   0.000000                                    RUNOFF =   0.000000    
                CONSTANT CONCENTRATION =   0.000000                    CONSTANT CONCENTRATION =   0.000000    
                             MASS GAIN =   0.000000                                 MASS GAIN =   0.000000    
                                         -------------------                                    --------------
                              TOTAL IN =   4730.594                                  TOTAL IN =   25.58192    

                   STREAM ACCUMULATION =   1868.831                       STREAM ACCUMULATION =   5.972517    
                        STREAM OUTFLOW =   2861.776                            STREAM OUTFLOW =   19.60940    
                          STREAM TO GW =   0.000000                              STREAM TO GW =   0.000000    
                CONSTANT CONCENTRATION =   0.000000                    CONSTANT CONCENTRATION =   0.000000    
                           EVAPORATION =   0.000000                               EVAPORATION =   0.000000    
                             MASS LOSS =   0.000000                                 MASS LOSS =   0.000000    
                                         -------------------                                    --------------
                             TOTAL OUT =   4730.607                                 TOTAL OUT =   25.58192    

                        NET (IN - OUT) = -0.1318359E-01                        NET (IN - OUT) = -0.3814697E-05
                 DISCREPANCY (PERCENT) = -0.2786875E-03                 DISCREPANCY (PERCENT) = -0.1491169E-04
                                              FLOW ERR (QIN-QOUT-DV) = -0.9536743E-06 [L3/T]




 >>>>>>>>>>>>>>>>>>>>>>>>>>>>>>>>>>>>>>>>>>>>>>>>>>>>>>>FOR COMPONENT NO. 01<<<<<<<<<<<<<<<<<<<<<<<<<<<<<<<<<<<<<<<<<<<<<<<<<<<<<<<


                                            -------------------------------------------
                                                      TRANSPORT STEP NO.   58
                                            -------------------------------------------

 TOTAL ELAPSED TIME SINCE BEGINNING OF SIMULATION =   51840.00    D   
 .....................................................................

                     CUMULATIVE MASS BUDGETS AT END OF TRANSPORT STEP   58, TIME STEP    1, STRESS PERIOD    3
                     -----------------------------------------------------------------------------------------

                                                             IN                           OUT
                                                      ----------------             ----------------
                               CONSTANT CONCENTRATION:    0.000000                    0.000000    
                                        CONSTANT HEAD:    647.0811                   -359.3617    
                                               STREAM:    0.000000                   -287.7236    
                               MASS STOR (FLOW MODEL):   0.5161509E-02              -0.6986623E-07
                                MASS STORAGE (SOLUTE):    0.000000                    0.000000    
                            ---------------------------------------------------------------------------
                                              [TOTAL]:    647.0863     KG            -647.0853     KG  

                                                          NET (IN - OUT):   0.9765625E-03
                                                   DISCREPANCY (PERCENT):   0.1509170E-03
     2 CALLS TO GCG PACKAGE FOR TRANSPORT TIME STEP    59 IN FLOW TIME STEP     1 STRESS PERIOD     3
      2 TOTAL ITERATIONS
  MAXIMUM CONCENTRATION CHANGES FOR EACH ITERATION:
  MAX. CHANGE LAYER,ROW,COL MAX. CHANGE LAYER,ROW,COL MAX. CHANGE LAYER,ROW,COL MAX. CHANGE LAYER,ROW,COL MAX. CHANGE LAYER,ROW,COL
 ------------------------------------------------------------------------------------------------------------------------------------
    0.000     (  1,  1,  1)   0.000     (  1,  1,  1)


                     STREAM MASS BUDGETS AT END OF TRANSPORT STEP   59, TIME STEP    1, STRESS PERIOD    3 FOR COMPONENT   1
                     -------------------------------------------------------------------------------------------------------

                                         CUMULATIVE MASS [M]                                     MASS FOR THIS TIME STEP [M]
                                         -------------------                                    --------------
                      STREAM DEPLETION =   1021.980                          STREAM DEPLETION =   16.20298    
                      INFLOW TO STREAM =   3445.418                          INFLOW TO STREAM =   8.325000    
                          GW TO STREAM =   288.7227                              GW TO STREAM =  0.9990391    
                         PRECIPITATION =   0.000000                             PRECIPITATION =   0.000000    
                                RUNOFF =   0.000000                                    RUNOFF =   0.000000    
                CONSTANT CONCENTRATION =   0.000000                    CONSTANT CONCENTRATION =   0.000000    
                             MASS GAIN =   0.000000                                 MASS GAIN =   0.000000    
                                         -------------------                                    --------------
                              TOTAL IN =   4756.121                                  TOTAL IN =   25.52702    

                   STREAM ACCUMULATION =   1874.439                       STREAM ACCUMULATION =   5.607810    
                        STREAM OUTFLOW =   2881.695                            STREAM OUTFLOW =   19.91921    
                          STREAM TO GW =   0.000000                              STREAM TO GW =   0.000000    
                CONSTANT CONCENTRATION =   0.000000                    CONSTANT CONCENTRATION =   0.000000    
                           EVAPORATION =   0.000000                               EVAPORATION =   0.000000    
                             MASS LOSS =   0.000000                                 MASS LOSS =   0.000000    
                                         -------------------                                    --------------
                             TOTAL OUT =   4756.134                                 TOTAL OUT =   25.52702    

                        NET (IN - OUT) = -0.1269531E-01                        NET (IN - OUT) =   0.000000    
                 DISCREPANCY (PERCENT) = -0.2669254E-03                 DISCREPANCY (PERCENT) =   0.000000    
                                              FLOW ERR (QIN-QOUT-DV) = -0.9536743E-06 [L3/T]




 >>>>>>>>>>>>>>>>>>>>>>>>>>>>>>>>>>>>>>>>>>>>>>>>>>>>>>>FOR COMPONENT NO. 01<<<<<<<<<<<<<<<<<<<<<<<<<<<<<<<<<<<<<<<<<<<<<<<<<<<<<<<


                                            -------------------------------------------
                                                      TRANSPORT STEP NO.   59
                                            -------------------------------------------

 TOTAL ELAPSED TIME SINCE BEGINNING OF SIMULATION =   52020.00    D   
 .....................................................................

                     CUMULATIVE MASS BUDGETS AT END OF TRANSPORT STEP   59, TIME STEP    1, STRESS PERIOD    3
                     -----------------------------------------------------------------------------------------

                                                             IN                           OUT
                                                      ----------------             ----------------
                               CONSTANT CONCENTRATION:    0.000000                    0.000000    
                                        CONSTANT HEAD:    649.3279                   -360.6095    
                                               STREAM:    0.000000                   -288.7227    
                               MASS STOR (FLOW MODEL):   0.5161509E-02              -0.6986623E-07
                                MASS STORAGE (SOLUTE):    0.000000                    0.000000    
                            ---------------------------------------------------------------------------
                                              [TOTAL]:    649.3331     KG            -649.3322     KG  

                                                          NET (IN - OUT):   0.9765625E-03
                                                   DISCREPANCY (PERCENT):   0.1503948E-03
     2 CALLS TO GCG PACKAGE FOR TRANSPORT TIME STEP    60 IN FLOW TIME STEP     1 STRESS PERIOD     3
      2 TOTAL ITERATIONS
  MAXIMUM CONCENTRATION CHANGES FOR EACH ITERATION:
  MAX. CHANGE LAYER,ROW,COL MAX. CHANGE LAYER,ROW,COL MAX. CHANGE LAYER,ROW,COL MAX. CHANGE LAYER,ROW,COL MAX. CHANGE LAYER,ROW,COL
 ------------------------------------------------------------------------------------------------------------------------------------
    0.000     (  1,  1,  1)   0.000     (  1,  1,  1)


                     STREAM MASS BUDGETS AT END OF TRANSPORT STEP   60, TIME STEP    1, STRESS PERIOD    3 FOR COMPONENT   1
                     -------------------------------------------------------------------------------------------------------

                                         CUMULATIVE MASS [M]                                     MASS FOR THIS TIME STEP [M]
                                         -------------------                                    --------------
                      STREAM DEPLETION =   1038.128                          STREAM DEPLETION =   16.14777    
                      INFLOW TO STREAM =   3453.743                          INFLOW TO STREAM =   8.325000    
                          GW TO STREAM =   289.7217                              GW TO STREAM =  0.9990391    
                         PRECIPITATION =   0.000000                             PRECIPITATION =   0.000000    
                                RUNOFF =   0.000000                                    RUNOFF =   0.000000    
                CONSTANT CONCENTRATION =   0.000000                    CONSTANT CONCENTRATION =   0.000000    
                             MASS GAIN =   0.000000                                 MASS GAIN =   0.000000    
                                         -------------------                                    --------------
                              TOTAL IN =   4781.593                                  TOTAL IN =   25.47181    

                   STREAM ACCUMULATION =   1879.689                       STREAM ACCUMULATION =   5.250072    
                        STREAM OUTFLOW =   2901.917                            STREAM OUTFLOW =   20.22174    
                          STREAM TO GW =   0.000000                              STREAM TO GW =   0.000000    
                CONSTANT CONCENTRATION =   0.000000                    CONSTANT CONCENTRATION =   0.000000    
                           EVAPORATION =   0.000000                               EVAPORATION =   0.000000    
                             MASS LOSS =   0.000000                                 MASS LOSS =   0.000000    
                                         -------------------                                    --------------
                             TOTAL OUT =   4781.606                                 TOTAL OUT =   25.47181    

                        NET (IN - OUT) = -0.1318359E-01                        NET (IN - OUT) = -0.1907349E-05
                 DISCREPANCY (PERCENT) = -0.2757151E-03                 DISCREPANCY (PERCENT) = -0.7488077E-05
                                              FLOW ERR (QIN-QOUT-DV) = -0.9536743E-06 [L3/T]




 >>>>>>>>>>>>>>>>>>>>>>>>>>>>>>>>>>>>>>>>>>>>>>>>>>>>>>>FOR COMPONENT NO. 01<<<<<<<<<<<<<<<<<<<<<<<<<<<<<<<<<<<<<<<<<<<<<<<<<<<<<<<


                                            -------------------------------------------
                                                      TRANSPORT STEP NO.   60
                                            -------------------------------------------

 TOTAL ELAPSED TIME SINCE BEGINNING OF SIMULATION =   52200.00    D   
 .....................................................................

                     CUMULATIVE MASS BUDGETS AT END OF TRANSPORT STEP   60, TIME STEP    1, STRESS PERIOD    3
                     -----------------------------------------------------------------------------------------

                                                             IN                           OUT
                                                      ----------------             ----------------
                               CONSTANT CONCENTRATION:    0.000000                    0.000000    
                                        CONSTANT HEAD:    651.5748                   -361.8572    
                                               STREAM:    0.000000                   -289.7217    
                               MASS STOR (FLOW MODEL):   0.5161509E-02              -0.6986623E-07
                                MASS STORAGE (SOLUTE):    0.000000                    0.000000    
                            ---------------------------------------------------------------------------
                                              [TOTAL]:    651.5800     KG            -651.5790     KG  

                                                          NET (IN - OUT):   0.9765625E-03
                                                   DISCREPANCY (PERCENT):   0.1498762E-03
     2 CALLS TO GCG PACKAGE FOR TRANSPORT TIME STEP    61 IN FLOW TIME STEP     1 STRESS PERIOD     3
      2 TOTAL ITERATIONS
  MAXIMUM CONCENTRATION CHANGES FOR EACH ITERATION:
  MAX. CHANGE LAYER,ROW,COL MAX. CHANGE LAYER,ROW,COL MAX. CHANGE LAYER,ROW,COL MAX. CHANGE LAYER,ROW,COL MAX. CHANGE LAYER,ROW,COL
 ------------------------------------------------------------------------------------------------------------------------------------
    0.000     (  1,  1,  1)   0.000     (  1,  1,  1)


                     STREAM MASS BUDGETS AT END OF TRANSPORT STEP   61, TIME STEP    1, STRESS PERIOD    3 FOR COMPONENT   1
                     -------------------------------------------------------------------------------------------------------

                                         CUMULATIVE MASS [M]                                     MASS FOR THIS TIME STEP [M]
                                         -------------------                                    --------------
                      STREAM DEPLETION =   1054.220                          STREAM DEPLETION =   16.09253    
                      INFLOW TO STREAM =   3462.068                          INFLOW TO STREAM =   8.325000    
                          GW TO STREAM =   290.7208                              GW TO STREAM =  0.9990391    
                         PRECIPITATION =   0.000000                             PRECIPITATION =   0.000000    
                                RUNOFF =   0.000000                                    RUNOFF =   0.000000    
                CONSTANT CONCENTRATION =   0.000000                    CONSTANT CONCENTRATION =   0.000000    
                             MASS GAIN =   0.000000                                 MASS GAIN =   0.000000    
                                         -------------------                                    --------------
                              TOTAL IN =   4807.009                                  TOTAL IN =   25.41657    

                   STREAM ACCUMULATION =   1884.589                       STREAM ACCUMULATION =   4.900062    
                        STREAM OUTFLOW =   2922.434                            STREAM OUTFLOW =   20.51651    
                          STREAM TO GW =   0.000000                              STREAM TO GW =   0.000000    
                CONSTANT CONCENTRATION =   0.000000                    CONSTANT CONCENTRATION =   0.000000    
                           EVAPORATION =   0.000000                               EVAPORATION =   0.000000    
                             MASS LOSS =   0.000000                                 MASS LOSS =   0.000000    
                                         -------------------                                    --------------
                             TOTAL OUT =   4807.022                                 TOTAL OUT =   25.41657    

                        NET (IN - OUT) = -0.1318359E-01                        NET (IN - OUT) = -0.5722046E-05
                 DISCREPANCY (PERCENT) = -0.2742574E-03                 DISCREPANCY (PERCENT) = -0.2251305E-04
                                              FLOW ERR (QIN-QOUT-DV) = -0.9536743E-06 [L3/T]




 >>>>>>>>>>>>>>>>>>>>>>>>>>>>>>>>>>>>>>>>>>>>>>>>>>>>>>>FOR COMPONENT NO. 01<<<<<<<<<<<<<<<<<<<<<<<<<<<<<<<<<<<<<<<<<<<<<<<<<<<<<<<


                                            -------------------------------------------
                                                      TRANSPORT STEP NO.   61
                                            -------------------------------------------

 TOTAL ELAPSED TIME SINCE BEGINNING OF SIMULATION =   52380.00    D   
 .....................................................................

                     CUMULATIVE MASS BUDGETS AT END OF TRANSPORT STEP   61, TIME STEP    1, STRESS PERIOD    3
                     -----------------------------------------------------------------------------------------

                                                             IN                           OUT
                                                      ----------------             ----------------
                               CONSTANT CONCENTRATION:    0.000000                    0.000000    
                                        CONSTANT HEAD:    653.8216                   -363.1050    
                                               STREAM:    0.000000                   -290.7208    
                               MASS STOR (FLOW MODEL):   0.5161509E-02              -0.6986623E-07
                                MASS STORAGE (SOLUTE):    0.000000                    0.000000    
                            ---------------------------------------------------------------------------
                                              [TOTAL]:    653.8268     KG            -653.8258     KG  

                                                          NET (IN - OUT):   0.9765625E-03
                                                   DISCREPANCY (PERCENT):   0.1493611E-03
     2 CALLS TO GCG PACKAGE FOR TRANSPORT TIME STEP    62 IN FLOW TIME STEP     1 STRESS PERIOD     3
      2 TOTAL ITERATIONS
  MAXIMUM CONCENTRATION CHANGES FOR EACH ITERATION:
  MAX. CHANGE LAYER,ROW,COL MAX. CHANGE LAYER,ROW,COL MAX. CHANGE LAYER,ROW,COL MAX. CHANGE LAYER,ROW,COL MAX. CHANGE LAYER,ROW,COL
 ------------------------------------------------------------------------------------------------------------------------------------
    0.000     (  1,  1,  1)   0.000     (  1,  1,  1)


                     STREAM MASS BUDGETS AT END OF TRANSPORT STEP   62, TIME STEP    1, STRESS PERIOD    3 FOR COMPONENT   1
                     -------------------------------------------------------------------------------------------------------

                                         CUMULATIVE MASS [M]                                     MASS FOR THIS TIME STEP [M]
                                         -------------------                                    --------------
                      STREAM DEPLETION =   1070.258                          STREAM DEPLETION =   16.03712    
                      INFLOW TO STREAM =   3470.393                          INFLOW TO STREAM =   8.325000    
                          GW TO STREAM =   291.7198                              GW TO STREAM =  0.9990391    
                         PRECIPITATION =   0.000000                             PRECIPITATION =   0.000000    
                                RUNOFF =   0.000000                                    RUNOFF =   0.000000    
                CONSTANT CONCENTRATION =   0.000000                    CONSTANT CONCENTRATION =   0.000000    
                             MASS GAIN =   0.000000                                 MASS GAIN =   0.000000    
                                         -------------------                                    --------------
                              TOTAL IN =   4832.370                                  TOTAL IN =   25.36116    

                   STREAM ACCUMULATION =   1889.147                       STREAM ACCUMULATION =   4.558070    
                        STREAM OUTFLOW =   2943.237                            STREAM OUTFLOW =   20.80309    
                          STREAM TO GW =   0.000000                              STREAM TO GW =   0.000000    
                CONSTANT CONCENTRATION =   0.000000                    CONSTANT CONCENTRATION =   0.000000    
                           EVAPORATION =   0.000000                               EVAPORATION =   0.000000    
                             MASS LOSS =   0.000000                                 MASS LOSS =   0.000000    
                                         -------------------                                    --------------
                             TOTAL OUT =   4832.384                                 TOTAL OUT =   25.36116    

                        NET (IN - OUT) = -0.1367188E-01                        NET (IN - OUT) =  0.3814697E-05
                 DISCREPANCY (PERCENT) = -0.2829224E-03                 DISCREPANCY (PERCENT) =  0.1504149E-04
                                              FLOW ERR (QIN-QOUT-DV) = -0.9536743E-06 [L3/T]




 >>>>>>>>>>>>>>>>>>>>>>>>>>>>>>>>>>>>>>>>>>>>>>>>>>>>>>>FOR COMPONENT NO. 01<<<<<<<<<<<<<<<<<<<<<<<<<<<<<<<<<<<<<<<<<<<<<<<<<<<<<<<


                                            -------------------------------------------
                                                      TRANSPORT STEP NO.   62
                                            -------------------------------------------

 TOTAL ELAPSED TIME SINCE BEGINNING OF SIMULATION =   52560.00    D   
 .....................................................................

                     CUMULATIVE MASS BUDGETS AT END OF TRANSPORT STEP   62, TIME STEP    1, STRESS PERIOD    3
                     -----------------------------------------------------------------------------------------

                                                             IN                           OUT
                                                      ----------------             ----------------
                               CONSTANT CONCENTRATION:    0.000000                    0.000000    
                                        CONSTANT HEAD:    656.0684                   -364.3528    
                                               STREAM:    0.000000                   -291.7198    
                               MASS STOR (FLOW MODEL):   0.5161509E-02              -0.6986623E-07
                                MASS STORAGE (SOLUTE):    0.000000                    0.000000    
                            ---------------------------------------------------------------------------
                                              [TOTAL]:    656.0736     KG            -656.0726     KG  

                                                          NET (IN - OUT):   0.9765625E-03
                                                   DISCREPANCY (PERCENT):   0.1488496E-03
     2 CALLS TO GCG PACKAGE FOR TRANSPORT TIME STEP    63 IN FLOW TIME STEP     1 STRESS PERIOD     3
      2 TOTAL ITERATIONS
  MAXIMUM CONCENTRATION CHANGES FOR EACH ITERATION:
  MAX. CHANGE LAYER,ROW,COL MAX. CHANGE LAYER,ROW,COL MAX. CHANGE LAYER,ROW,COL MAX. CHANGE LAYER,ROW,COL MAX. CHANGE LAYER,ROW,COL
 ------------------------------------------------------------------------------------------------------------------------------------
    0.000     (  1,  1,  1)   0.000     (  1,  1,  1)


                     STREAM MASS BUDGETS AT END OF TRANSPORT STEP   63, TIME STEP    1, STRESS PERIOD    3 FOR COMPONENT   1
                     -------------------------------------------------------------------------------------------------------

                                         CUMULATIVE MASS [M]                                     MASS FOR THIS TIME STEP [M]
                                         -------------------                                    --------------
                      STREAM DEPLETION =   1086.239                          STREAM DEPLETION =   15.98168    
                      INFLOW TO STREAM =   3478.718                          INFLOW TO STREAM =   8.325000    
                          GW TO STREAM =   292.7189                              GW TO STREAM =  0.9990391    
                         PRECIPITATION =   0.000000                             PRECIPITATION =   0.000000    
                                RUNOFF =   0.000000                                    RUNOFF =   0.000000    
                CONSTANT CONCENTRATION =   0.000000                    CONSTANT CONCENTRATION =   0.000000    
                             MASS GAIN =   0.000000                                 MASS GAIN =   0.000000    
                                         -------------------                                    --------------
                              TOTAL IN =   4857.676                                  TOTAL IN =   25.30572    

                   STREAM ACCUMULATION =   1893.372                       STREAM ACCUMULATION =   4.224658    
                        STREAM OUTFLOW =   2964.318                            STREAM OUTFLOW =   21.08106    
                          STREAM TO GW =   0.000000                              STREAM TO GW =   0.000000    
                CONSTANT CONCENTRATION =   0.000000                    CONSTANT CONCENTRATION =   0.000000    
                           EVAPORATION =   0.000000                               EVAPORATION =   0.000000    
                             MASS LOSS =   0.000000                                 MASS LOSS =   0.000000    
                                         -------------------                                    --------------
                             TOTAL OUT =   4857.689                                 TOTAL OUT =   25.30572    

                        NET (IN - OUT) = -0.1367188E-01                        NET (IN - OUT) =   0.000000    
                 DISCREPANCY (PERCENT) = -0.2814485E-03                 DISCREPANCY (PERCENT) =   0.000000    
                                              FLOW ERR (QIN-QOUT-DV) = -0.9536743E-06 [L3/T]




 >>>>>>>>>>>>>>>>>>>>>>>>>>>>>>>>>>>>>>>>>>>>>>>>>>>>>>>FOR COMPONENT NO. 01<<<<<<<<<<<<<<<<<<<<<<<<<<<<<<<<<<<<<<<<<<<<<<<<<<<<<<<


                                            -------------------------------------------
                                                      TRANSPORT STEP NO.   63
                                            -------------------------------------------

 TOTAL ELAPSED TIME SINCE BEGINNING OF SIMULATION =   52740.00    D   
 .....................................................................

                     CUMULATIVE MASS BUDGETS AT END OF TRANSPORT STEP   63, TIME STEP    1, STRESS PERIOD    3
                     -----------------------------------------------------------------------------------------

                                                             IN                           OUT
                                                      ----------------             ----------------
                               CONSTANT CONCENTRATION:    0.000000                    0.000000    
                                        CONSTANT HEAD:    658.3152                   -365.6006    
                                               STREAM:    0.000000                   -292.7189    
                               MASS STOR (FLOW MODEL):   0.5161509E-02              -0.6986623E-07
                                MASS STORAGE (SOLUTE):    0.000000                    0.000000    
                            ---------------------------------------------------------------------------
                                              [TOTAL]:    658.3204     KG            -658.3195     KG  

                                                          NET (IN - OUT):   0.9765625E-03
                                                   DISCREPANCY (PERCENT):   0.1483416E-03
     2 CALLS TO GCG PACKAGE FOR TRANSPORT TIME STEP    64 IN FLOW TIME STEP     1 STRESS PERIOD     3
      2 TOTAL ITERATIONS
  MAXIMUM CONCENTRATION CHANGES FOR EACH ITERATION:
  MAX. CHANGE LAYER,ROW,COL MAX. CHANGE LAYER,ROW,COL MAX. CHANGE LAYER,ROW,COL MAX. CHANGE LAYER,ROW,COL MAX. CHANGE LAYER,ROW,COL
 ------------------------------------------------------------------------------------------------------------------------------------
    0.000     (  1,  1,  1)   0.000     (  1,  1,  1)


                     STREAM MASS BUDGETS AT END OF TRANSPORT STEP   64, TIME STEP    1, STRESS PERIOD    3 FOR COMPONENT   1
                     -------------------------------------------------------------------------------------------------------

                                         CUMULATIVE MASS [M]                                     MASS FOR THIS TIME STEP [M]
                                         -------------------                                    --------------
                      STREAM DEPLETION =   1102.166                          STREAM DEPLETION =   15.92621    
                      INFLOW TO STREAM =   3487.043                          INFLOW TO STREAM =   8.325000    
                          GW TO STREAM =   293.7180                              GW TO STREAM =  0.9990391    
                         PRECIPITATION =   0.000000                             PRECIPITATION =   0.000000    
                                RUNOFF =   0.000000                                    RUNOFF =   0.000000    
                CONSTANT CONCENTRATION =   0.000000                    CONSTANT CONCENTRATION =   0.000000    
                             MASS GAIN =   0.000000                                 MASS GAIN =   0.000000    
                                         -------------------                                    --------------
                              TOTAL IN =   4882.926                                  TOTAL IN =   25.25025    

                   STREAM ACCUMULATION =   1897.272                       STREAM ACCUMULATION =   3.900222    
                        STREAM OUTFLOW =   2985.668                            STREAM OUTFLOW =   21.35004    
                          STREAM TO GW =   0.000000                              STREAM TO GW =   0.000000    
                CONSTANT CONCENTRATION =   0.000000                    CONSTANT CONCENTRATION =   0.000000    
                           EVAPORATION =   0.000000                               EVAPORATION =   0.000000    
                             MASS LOSS =   0.000000                                 MASS LOSS =   0.000000    
                                         -------------------                                    --------------
                             TOTAL OUT =   4882.939                                 TOTAL OUT =   25.25026    

                        NET (IN - OUT) = -0.1318359E-01                        NET (IN - OUT) = -0.9536743E-05
                 DISCREPANCY (PERCENT) = -0.2699934E-03                 DISCREPANCY (PERCENT) = -0.3776890E-04
                                              FLOW ERR (QIN-QOUT-DV) = -0.9536743E-06 [L3/T]




 >>>>>>>>>>>>>>>>>>>>>>>>>>>>>>>>>>>>>>>>>>>>>>>>>>>>>>>FOR COMPONENT NO. 01<<<<<<<<<<<<<<<<<<<<<<<<<<<<<<<<<<<<<<<<<<<<<<<<<<<<<<<


                                            -------------------------------------------
                                                      TRANSPORT STEP NO.   64
                                            -------------------------------------------

 TOTAL ELAPSED TIME SINCE BEGINNING OF SIMULATION =   52920.00    D   
 .....................................................................

                     CUMULATIVE MASS BUDGETS AT END OF TRANSPORT STEP   64, TIME STEP    1, STRESS PERIOD    3
                     -----------------------------------------------------------------------------------------

                                                             IN                           OUT
                                                      ----------------             ----------------
                               CONSTANT CONCENTRATION:    0.000000                    0.000000    
                                        CONSTANT HEAD:    660.5621                   -366.8483    
                                               STREAM:    0.000000                   -293.7180    
                               MASS STOR (FLOW MODEL):   0.5161509E-02              -0.6986623E-07
                                MASS STORAGE (SOLUTE):    0.000000                    0.000000    
                            ---------------------------------------------------------------------------
                                              [TOTAL]:    660.5673     KG            -660.5663     KG  

                                                          NET (IN - OUT):   0.9765625E-03
                                                   DISCREPANCY (PERCENT):   0.1478371E-03
     2 CALLS TO GCG PACKAGE FOR TRANSPORT TIME STEP    65 IN FLOW TIME STEP     1 STRESS PERIOD     3
      2 TOTAL ITERATIONS
  MAXIMUM CONCENTRATION CHANGES FOR EACH ITERATION:
  MAX. CHANGE LAYER,ROW,COL MAX. CHANGE LAYER,ROW,COL MAX. CHANGE LAYER,ROW,COL MAX. CHANGE LAYER,ROW,COL MAX. CHANGE LAYER,ROW,COL
 ------------------------------------------------------------------------------------------------------------------------------------
    0.000     (  1,  1,  1)   0.000     (  1,  1,  1)


                     STREAM MASS BUDGETS AT END OF TRANSPORT STEP   65, TIME STEP    1, STRESS PERIOD    3 FOR COMPONENT   1
                     -------------------------------------------------------------------------------------------------------

                                         CUMULATIVE MASS [M]                                     MASS FOR THIS TIME STEP [M]
                                         -------------------                                    --------------
                      STREAM DEPLETION =   1118.036                          STREAM DEPLETION =   15.87070    
                      INFLOW TO STREAM =   3495.368                          INFLOW TO STREAM =   8.325000    
                          GW TO STREAM =   294.7170                              GW TO STREAM =  0.9990391    
                         PRECIPITATION =   0.000000                             PRECIPITATION =   0.000000    
                                RUNOFF =   0.000000                                    RUNOFF =   0.000000    
                CONSTANT CONCENTRATION =   0.000000                    CONSTANT CONCENTRATION =   0.000000    
                             MASS GAIN =   0.000000                                 MASS GAIN =   0.000000    
                                         -------------------                                    --------------
                              TOTAL IN =   4908.121                                  TOTAL IN =   25.19474    

                   STREAM ACCUMULATION =   1900.857                       STREAM ACCUMULATION =   3.585093    
                        STREAM OUTFLOW =   3007.277                            STREAM OUTFLOW =   21.60964    
                          STREAM TO GW =   0.000000                              STREAM TO GW =   0.000000    
                CONSTANT CONCENTRATION =   0.000000                    CONSTANT CONCENTRATION =   0.000000    
                           EVAPORATION =   0.000000                               EVAPORATION =   0.000000    
                             MASS LOSS =   0.000000                                 MASS LOSS =   0.000000    
                                         -------------------                                    --------------
                             TOTAL OUT =   4908.134                                 TOTAL OUT =   25.19474    

                        NET (IN - OUT) = -0.1318359E-01                        NET (IN - OUT) =  0.3814697E-05
                 DISCREPANCY (PERCENT) = -0.2686074E-03                 DISCREPANCY (PERCENT) =  0.1514085E-04
                                              FLOW ERR (QIN-QOUT-DV) = -0.9536743E-06 [L3/T]




 >>>>>>>>>>>>>>>>>>>>>>>>>>>>>>>>>>>>>>>>>>>>>>>>>>>>>>>FOR COMPONENT NO. 01<<<<<<<<<<<<<<<<<<<<<<<<<<<<<<<<<<<<<<<<<<<<<<<<<<<<<<<


                                            -------------------------------------------
                                                      TRANSPORT STEP NO.   65
                                            -------------------------------------------

 TOTAL ELAPSED TIME SINCE BEGINNING OF SIMULATION =   53100.00    D   
 .....................................................................

                     CUMULATIVE MASS BUDGETS AT END OF TRANSPORT STEP   65, TIME STEP    1, STRESS PERIOD    3
                     -----------------------------------------------------------------------------------------

                                                             IN                           OUT
                                                      ----------------             ----------------
                               CONSTANT CONCENTRATION:    0.000000                    0.000000    
                                        CONSTANT HEAD:    662.8089                   -368.0961    
                                               STREAM:    0.000000                   -294.7170    
                               MASS STOR (FLOW MODEL):   0.5161509E-02              -0.6986623E-07
                                MASS STORAGE (SOLUTE):    0.000000                    0.000000    
                            ---------------------------------------------------------------------------
                                              [TOTAL]:    662.8141     KG            -662.8131     KG  

                                                          NET (IN - OUT):   0.9765625E-03
                                                   DISCREPANCY (PERCENT):   0.1473359E-03
     2 CALLS TO GCG PACKAGE FOR TRANSPORT TIME STEP    66 IN FLOW TIME STEP     1 STRESS PERIOD     3
      2 TOTAL ITERATIONS
  MAXIMUM CONCENTRATION CHANGES FOR EACH ITERATION:
  MAX. CHANGE LAYER,ROW,COL MAX. CHANGE LAYER,ROW,COL MAX. CHANGE LAYER,ROW,COL MAX. CHANGE LAYER,ROW,COL MAX. CHANGE LAYER,ROW,COL
 ------------------------------------------------------------------------------------------------------------------------------------
    0.000     (  1,  1,  1)   0.000     (  1,  1,  1)


                     STREAM MASS BUDGETS AT END OF TRANSPORT STEP   66, TIME STEP    1, STRESS PERIOD    3 FOR COMPONENT   1
                     -------------------------------------------------------------------------------------------------------

                                         CUMULATIVE MASS [M]                                     MASS FOR THIS TIME STEP [M]
                                         -------------------                                    --------------
                      STREAM DEPLETION =   1133.852                          STREAM DEPLETION =   15.81533    
                      INFLOW TO STREAM =   3503.693                          INFLOW TO STREAM =   8.325000    
                          GW TO STREAM =   295.7161                              GW TO STREAM =  0.9990391    
                         PRECIPITATION =   0.000000                             PRECIPITATION =   0.000000    
                                RUNOFF =   0.000000                                    RUNOFF =   0.000000    
                CONSTANT CONCENTRATION =   0.000000                    CONSTANT CONCENTRATION =   0.000000    
                             MASS GAIN =   0.000000                                 MASS GAIN =   0.000000    
                                         -------------------                                    --------------
                              TOTAL IN =   4933.260                                  TOTAL IN =   25.13937    

                   STREAM ACCUMULATION =   1904.137                       STREAM ACCUMULATION =   3.279854    
                        STREAM OUTFLOW =   3029.137                            STREAM OUTFLOW =   21.85952    
                          STREAM TO GW =   0.000000                              STREAM TO GW =   0.000000    
                CONSTANT CONCENTRATION =   0.000000                    CONSTANT CONCENTRATION =   0.000000    
                           EVAPORATION =   0.000000                               EVAPORATION =   0.000000    
                             MASS LOSS =   0.000000                                 MASS LOSS =   0.000000    
                                         -------------------                                    --------------
                             TOTAL OUT =   4933.274                                 TOTAL OUT =   25.13937    

                        NET (IN - OUT) = -0.1367188E-01                        NET (IN - OUT) = -0.3814697E-05
                 DISCREPANCY (PERCENT) = -0.2771363E-03                 DISCREPANCY (PERCENT) = -0.1517420E-04
                                              FLOW ERR (QIN-QOUT-DV) = -0.9536743E-06 [L3/T]




 >>>>>>>>>>>>>>>>>>>>>>>>>>>>>>>>>>>>>>>>>>>>>>>>>>>>>>>FOR COMPONENT NO. 01<<<<<<<<<<<<<<<<<<<<<<<<<<<<<<<<<<<<<<<<<<<<<<<<<<<<<<<


                                            -------------------------------------------
                                                      TRANSPORT STEP NO.   66
                                            -------------------------------------------

 TOTAL ELAPSED TIME SINCE BEGINNING OF SIMULATION =   53280.00    D   
 .....................................................................

                     CUMULATIVE MASS BUDGETS AT END OF TRANSPORT STEP   66, TIME STEP    1, STRESS PERIOD    3
                     -----------------------------------------------------------------------------------------

                                                             IN                           OUT
                                                      ----------------             ----------------
                               CONSTANT CONCENTRATION:    0.000000                    0.000000    
                                        CONSTANT HEAD:    665.0557                   -369.3439    
                                               STREAM:    0.000000                   -295.7161    
                               MASS STOR (FLOW MODEL):   0.5161509E-02              -0.6986623E-07
                                MASS STORAGE (SOLUTE):    0.000000                    0.000000    
                            ---------------------------------------------------------------------------
                                              [TOTAL]:    665.0609     KG            -665.0599     KG  

                                                          NET (IN - OUT):   0.9765625E-03
                                                   DISCREPANCY (PERCENT):   0.1468382E-03
     2 CALLS TO GCG PACKAGE FOR TRANSPORT TIME STEP    67 IN FLOW TIME STEP     1 STRESS PERIOD     3
      2 TOTAL ITERATIONS
  MAXIMUM CONCENTRATION CHANGES FOR EACH ITERATION:
  MAX. CHANGE LAYER,ROW,COL MAX. CHANGE LAYER,ROW,COL MAX. CHANGE LAYER,ROW,COL MAX. CHANGE LAYER,ROW,COL MAX. CHANGE LAYER,ROW,COL
 ------------------------------------------------------------------------------------------------------------------------------------
    0.000     (  1,  1,  1)   0.000     (  1,  1,  1)


                     STREAM MASS BUDGETS AT END OF TRANSPORT STEP   67, TIME STEP    1, STRESS PERIOD    3 FOR COMPONENT   1
                     -------------------------------------------------------------------------------------------------------

                                         CUMULATIVE MASS [M]                                     MASS FOR THIS TIME STEP [M]
                                         -------------------                                    --------------
                      STREAM DEPLETION =   1149.611                          STREAM DEPLETION =   15.75991    
                      INFLOW TO STREAM =   3512.018                          INFLOW TO STREAM =   8.325000    
                          GW TO STREAM =   296.7151                              GW TO STREAM =  0.9990391    
                         PRECIPITATION =   0.000000                             PRECIPITATION =   0.000000    
                                RUNOFF =   0.000000                                    RUNOFF =   0.000000    
                CONSTANT CONCENTRATION =   0.000000                    CONSTANT CONCENTRATION =   0.000000    
                             MASS GAIN =   0.000000                                 MASS GAIN =   0.000000    
                                         -------------------                                    --------------
                              TOTAL IN =   4958.344                                  TOTAL IN =   25.08395    

                   STREAM ACCUMULATION =   1907.121                       STREAM ACCUMULATION =   2.984659    
                        STREAM OUTFLOW =   3051.236                            STREAM OUTFLOW =   22.09929    
                          STREAM TO GW =   0.000000                              STREAM TO GW =   0.000000    
                CONSTANT CONCENTRATION =   0.000000                    CONSTANT CONCENTRATION =   0.000000    
                           EVAPORATION =   0.000000                               EVAPORATION =   0.000000    
                             MASS LOSS =   0.000000                                 MASS LOSS =   0.000000    
                                         -------------------                                    --------------
                             TOTAL OUT =   4958.358                                 TOTAL OUT =   25.08395    

                        NET (IN - OUT) = -0.1367188E-01                        NET (IN - OUT) = -0.1907349E-05
                 DISCREPANCY (PERCENT) = -0.2757343E-03                 DISCREPANCY (PERCENT) = -0.7603861E-05
                                              FLOW ERR (QIN-QOUT-DV) = -0.9536743E-06 [L3/T]




 >>>>>>>>>>>>>>>>>>>>>>>>>>>>>>>>>>>>>>>>>>>>>>>>>>>>>>>FOR COMPONENT NO. 01<<<<<<<<<<<<<<<<<<<<<<<<<<<<<<<<<<<<<<<<<<<<<<<<<<<<<<<


                                            -------------------------------------------
                                                      TRANSPORT STEP NO.   67
                                            -------------------------------------------

 TOTAL ELAPSED TIME SINCE BEGINNING OF SIMULATION =   53460.00    D   
 .....................................................................

                     CUMULATIVE MASS BUDGETS AT END OF TRANSPORT STEP   67, TIME STEP    1, STRESS PERIOD    3
                     -----------------------------------------------------------------------------------------

                                                             IN                           OUT
                                                      ----------------             ----------------
                               CONSTANT CONCENTRATION:    0.000000                    0.000000    
                                        CONSTANT HEAD:    667.3026                   -370.5916    
                                               STREAM:    0.000000                   -296.7151    
                               MASS STOR (FLOW MODEL):   0.5161509E-02              -0.6986623E-07
                                MASS STORAGE (SOLUTE):    0.000000                    0.000000    
                            ---------------------------------------------------------------------------
                                              [TOTAL]:    667.3077     KG            -667.3068     KG  

                                                          NET (IN - OUT):   0.9765625E-03
                                                   DISCREPANCY (PERCENT):   0.1463438E-03
     2 CALLS TO GCG PACKAGE FOR TRANSPORT TIME STEP    68 IN FLOW TIME STEP     1 STRESS PERIOD     3
      2 TOTAL ITERATIONS
  MAXIMUM CONCENTRATION CHANGES FOR EACH ITERATION:
  MAX. CHANGE LAYER,ROW,COL MAX. CHANGE LAYER,ROW,COL MAX. CHANGE LAYER,ROW,COL MAX. CHANGE LAYER,ROW,COL MAX. CHANGE LAYER,ROW,COL
 ------------------------------------------------------------------------------------------------------------------------------------
    0.000     (  1,  1,  1)   0.000     (  1,  1,  1)


                     STREAM MASS BUDGETS AT END OF TRANSPORT STEP   68, TIME STEP    1, STRESS PERIOD    3 FOR COMPONENT   1
                     -------------------------------------------------------------------------------------------------------

                                         CUMULATIVE MASS [M]                                     MASS FOR THIS TIME STEP [M]
                                         -------------------                                    --------------
                      STREAM DEPLETION =   1165.316                          STREAM DEPLETION =   15.70467    
                      INFLOW TO STREAM =   3520.343                          INFLOW TO STREAM =   8.325000    
                          GW TO STREAM =   297.7142                              GW TO STREAM =  0.9990391    
                         PRECIPITATION =   0.000000                             PRECIPITATION =   0.000000    
                                RUNOFF =   0.000000                                    RUNOFF =   0.000000    
                CONSTANT CONCENTRATION =   0.000000                    CONSTANT CONCENTRATION =   0.000000    
                             MASS GAIN =   0.000000                                 MASS GAIN =   0.000000    
                                         -------------------                                    --------------
                              TOTAL IN =   4983.373                                  TOTAL IN =   25.02871    

                   STREAM ACCUMULATION =   1909.822                       STREAM ACCUMULATION =   2.700099    
                        STREAM OUTFLOW =   3073.565                            STREAM OUTFLOW =   22.32861    
                          STREAM TO GW =   0.000000                              STREAM TO GW =   0.000000    
                CONSTANT CONCENTRATION =   0.000000                    CONSTANT CONCENTRATION =   0.000000    
                           EVAPORATION =   0.000000                               EVAPORATION =   0.000000    
                             MASS LOSS =   0.000000                                 MASS LOSS =   0.000000    
                                         -------------------                                    --------------
                             TOTAL OUT =   4983.387                                 TOTAL OUT =   25.02871    

                        NET (IN - OUT) = -0.1367188E-01                        NET (IN - OUT) =   0.000000    
                 DISCREPANCY (PERCENT) = -0.2743494E-03                 DISCREPANCY (PERCENT) =   0.000000    
                                              FLOW ERR (QIN-QOUT-DV) = -0.9536743E-06 [L3/T]




 >>>>>>>>>>>>>>>>>>>>>>>>>>>>>>>>>>>>>>>>>>>>>>>>>>>>>>>FOR COMPONENT NO. 01<<<<<<<<<<<<<<<<<<<<<<<<<<<<<<<<<<<<<<<<<<<<<<<<<<<<<<<


                                            -------------------------------------------
                                                      TRANSPORT STEP NO.   68
                                            -------------------------------------------

 TOTAL ELAPSED TIME SINCE BEGINNING OF SIMULATION =   53640.00    D   
 .....................................................................

                     CUMULATIVE MASS BUDGETS AT END OF TRANSPORT STEP   68, TIME STEP    1, STRESS PERIOD    3
                     -----------------------------------------------------------------------------------------

                                                             IN                           OUT
                                                      ----------------             ----------------
                               CONSTANT CONCENTRATION:    0.000000                    0.000000    
                                        CONSTANT HEAD:    669.5494                   -371.8394    
                                               STREAM:    0.000000                   -297.7142    
                               MASS STOR (FLOW MODEL):   0.5161509E-02              -0.6986623E-07
                                MASS STORAGE (SOLUTE):    0.000000                    0.000000    
                            ---------------------------------------------------------------------------
                                              [TOTAL]:    669.5546     KG            -669.5536     KG  

                                                          NET (IN - OUT):   0.9765625E-03
                                                   DISCREPANCY (PERCENT):   0.1458527E-03
     2 CALLS TO GCG PACKAGE FOR TRANSPORT TIME STEP    69 IN FLOW TIME STEP     1 STRESS PERIOD     3
      2 TOTAL ITERATIONS
  MAXIMUM CONCENTRATION CHANGES FOR EACH ITERATION:
  MAX. CHANGE LAYER,ROW,COL MAX. CHANGE LAYER,ROW,COL MAX. CHANGE LAYER,ROW,COL MAX. CHANGE LAYER,ROW,COL MAX. CHANGE LAYER,ROW,COL
 ------------------------------------------------------------------------------------------------------------------------------------
    0.000     (  1,  1,  1)   0.000     (  1,  1,  1)


                     STREAM MASS BUDGETS AT END OF TRANSPORT STEP   69, TIME STEP    1, STRESS PERIOD    3 FOR COMPONENT   1
                     -------------------------------------------------------------------------------------------------------

                                         CUMULATIVE MASS [M]                                     MASS FOR THIS TIME STEP [M]
                                         -------------------                                    --------------
                      STREAM DEPLETION =   1180.966                          STREAM DEPLETION =   15.64955    
                      INFLOW TO STREAM =   3528.667                          INFLOW TO STREAM =   8.325000    
                          GW TO STREAM =   298.7132                              GW TO STREAM =  0.9990391    
                         PRECIPITATION =   0.000000                             PRECIPITATION =   0.000000    
                                RUNOFF =   0.000000                                    RUNOFF =   0.000000    
                CONSTANT CONCENTRATION =   0.000000                    CONSTANT CONCENTRATION =   0.000000    
                             MASS GAIN =   0.000000                                 MASS GAIN =   0.000000    
                                         -------------------                                    --------------
                              TOTAL IN =   5008.347                                  TOTAL IN =   24.97359    

                   STREAM ACCUMULATION =   1912.248                       STREAM ACCUMULATION =   2.426479    
                        STREAM OUTFLOW =   3096.112                            STREAM OUTFLOW =   22.54710    
                          STREAM TO GW =   0.000000                              STREAM TO GW =   0.000000    
                CONSTANT CONCENTRATION =   0.000000                    CONSTANT CONCENTRATION =   0.000000    
                           EVAPORATION =   0.000000                               EVAPORATION =   0.000000    
                             MASS LOSS =   0.000000                                 MASS LOSS =   0.000000    
                                         -------------------                                    --------------
                             TOTAL OUT =   5008.360                                 TOTAL OUT =   24.97358    

                        NET (IN - OUT) = -0.1367188E-01                        NET (IN - OUT) =  0.7629395E-05
                 DISCREPANCY (PERCENT) = -0.2729814E-03                 DISCREPANCY (PERCENT) =  0.3054986E-04
                                              FLOW ERR (QIN-QOUT-DV) = -0.9536743E-06 [L3/T]




 >>>>>>>>>>>>>>>>>>>>>>>>>>>>>>>>>>>>>>>>>>>>>>>>>>>>>>>FOR COMPONENT NO. 01<<<<<<<<<<<<<<<<<<<<<<<<<<<<<<<<<<<<<<<<<<<<<<<<<<<<<<<


                                            -------------------------------------------
                                                      TRANSPORT STEP NO.   69
                                            -------------------------------------------

 TOTAL ELAPSED TIME SINCE BEGINNING OF SIMULATION =   53820.00    D   
 .....................................................................

                     CUMULATIVE MASS BUDGETS AT END OF TRANSPORT STEP   69, TIME STEP    1, STRESS PERIOD    3
                     -----------------------------------------------------------------------------------------

                                                             IN                           OUT
                                                      ----------------             ----------------
                               CONSTANT CONCENTRATION:    0.000000                    0.000000    
                                        CONSTANT HEAD:    671.7962                   -373.0872    
                                               STREAM:    0.000000                   -298.7132    
                               MASS STOR (FLOW MODEL):   0.5161509E-02              -0.6986623E-07
                                MASS STORAGE (SOLUTE):    0.000000                    0.000000    
                            ---------------------------------------------------------------------------
                                              [TOTAL]:    671.8014     KG            -671.8004     KG  

                                                          NET (IN - OUT):   0.9765625E-03
                                                   DISCREPANCY (PERCENT):   0.1453649E-03
     2 CALLS TO GCG PACKAGE FOR TRANSPORT TIME STEP    70 IN FLOW TIME STEP     1 STRESS PERIOD     3
      2 TOTAL ITERATIONS
  MAXIMUM CONCENTRATION CHANGES FOR EACH ITERATION:
  MAX. CHANGE LAYER,ROW,COL MAX. CHANGE LAYER,ROW,COL MAX. CHANGE LAYER,ROW,COL MAX. CHANGE LAYER,ROW,COL MAX. CHANGE LAYER,ROW,COL
 ------------------------------------------------------------------------------------------------------------------------------------
    0.000     (  1,  1,  1)   0.000     (  1,  1,  1)


                     STREAM MASS BUDGETS AT END OF TRANSPORT STEP   70, TIME STEP    1, STRESS PERIOD    3 FOR COMPONENT   1
                     -------------------------------------------------------------------------------------------------------

                                         CUMULATIVE MASS [M]                                     MASS FOR THIS TIME STEP [M]
                                         -------------------                                    --------------
                      STREAM DEPLETION =   1196.560                          STREAM DEPLETION =   15.59449    
                      INFLOW TO STREAM =   3536.992                          INFLOW TO STREAM =   8.325000    
                          GW TO STREAM =   299.7123                              GW TO STREAM =  0.9990391    
                         PRECIPITATION =   0.000000                             PRECIPITATION =   0.000000    
                                RUNOFF =   0.000000                                    RUNOFF =   0.000000    
                CONSTANT CONCENTRATION =   0.000000                    CONSTANT CONCENTRATION =   0.000000    
                             MASS GAIN =   0.000000                                 MASS GAIN =   0.000000    
                                         -------------------                                    --------------
                              TOTAL IN =   5033.265                                  TOTAL IN =   24.91853    

                   STREAM ACCUMULATION =   1914.412                       STREAM ACCUMULATION =   2.164152    
                        STREAM OUTFLOW =   3118.866                            STREAM OUTFLOW =   22.75437    
                          STREAM TO GW =   0.000000                              STREAM TO GW =   0.000000    
                CONSTANT CONCENTRATION =   0.000000                    CONSTANT CONCENTRATION =   0.000000    
                           EVAPORATION =   0.000000                               EVAPORATION =   0.000000    
                             MASS LOSS =   0.000000                                 MASS LOSS =   0.000000    
                                         -------------------                                    --------------
                             TOTAL OUT =   5033.279                                 TOTAL OUT =   24.91852    

                        NET (IN - OUT) = -0.1416016E-01                        NET (IN - OUT) =  0.1907349E-05
                 DISCREPANCY (PERCENT) = -0.2813311E-03                 DISCREPANCY (PERCENT) =  0.7654340E-05
                                              FLOW ERR (QIN-QOUT-DV) = -0.9536743E-06 [L3/T]




 >>>>>>>>>>>>>>>>>>>>>>>>>>>>>>>>>>>>>>>>>>>>>>>>>>>>>>>FOR COMPONENT NO. 01<<<<<<<<<<<<<<<<<<<<<<<<<<<<<<<<<<<<<<<<<<<<<<<<<<<<<<<


                                            -------------------------------------------
                                                      TRANSPORT STEP NO.   70
                                            -------------------------------------------

 TOTAL ELAPSED TIME SINCE BEGINNING OF SIMULATION =   54000.00    D   
 .....................................................................

                     CUMULATIVE MASS BUDGETS AT END OF TRANSPORT STEP   70, TIME STEP    1, STRESS PERIOD    3
                     -----------------------------------------------------------------------------------------

                                                             IN                           OUT
                                                      ----------------             ----------------
                               CONSTANT CONCENTRATION:    0.000000                    0.000000    
                                        CONSTANT HEAD:    674.0430                   -374.3350    
                                               STREAM:    0.000000                   -299.7123    
                               MASS STOR (FLOW MODEL):   0.5161509E-02              -0.6986623E-07
                                MASS STORAGE (SOLUTE):    0.000000                    0.000000    
                            ---------------------------------------------------------------------------
                                              [TOTAL]:    674.0482     KG            -674.0472     KG  

                                                          NET (IN - OUT):   0.9765625E-03
                                                   DISCREPANCY (PERCENT):   0.1448803E-03
     2 CALLS TO GCG PACKAGE FOR TRANSPORT TIME STEP    71 IN FLOW TIME STEP     1 STRESS PERIOD     3
      2 TOTAL ITERATIONS
  MAXIMUM CONCENTRATION CHANGES FOR EACH ITERATION:
  MAX. CHANGE LAYER,ROW,COL MAX. CHANGE LAYER,ROW,COL MAX. CHANGE LAYER,ROW,COL MAX. CHANGE LAYER,ROW,COL MAX. CHANGE LAYER,ROW,COL
 ------------------------------------------------------------------------------------------------------------------------------------
    0.000     (  1,  1,  1)   0.000     (  1,  1,  1)


                     STREAM MASS BUDGETS AT END OF TRANSPORT STEP   71, TIME STEP    1, STRESS PERIOD    3 FOR COMPONENT   1
                     -------------------------------------------------------------------------------------------------------

                                         CUMULATIVE MASS [M]                                     MASS FOR THIS TIME STEP [M]
                                         -------------------                                    --------------
                      STREAM DEPLETION =   1212.100                          STREAM DEPLETION =   15.53977    
                      INFLOW TO STREAM =   3545.317                          INFLOW TO STREAM =   8.325000    
                          GW TO STREAM =   300.7113                              GW TO STREAM =  0.9990391    
                         PRECIPITATION =   0.000000                             PRECIPITATION =   0.000000    
                                RUNOFF =   0.000000                                    RUNOFF =   0.000000    
                CONSTANT CONCENTRATION =   0.000000                    CONSTANT CONCENTRATION =   0.000000    
                             MASS GAIN =   0.000000                                 MASS GAIN =   0.000000    
                                         -------------------                                    --------------
                              TOTAL IN =   5058.129                                  TOTAL IN =   24.86381    

                   STREAM ACCUMULATION =   1916.326                       STREAM ACCUMULATION =   1.913784    
                        STREAM OUTFLOW =   3141.816                            STREAM OUTFLOW =   22.95003    
                          STREAM TO GW =   0.000000                              STREAM TO GW =   0.000000    
                CONSTANT CONCENTRATION =   0.000000                    CONSTANT CONCENTRATION =   0.000000    
                           EVAPORATION =   0.000000                               EVAPORATION =   0.000000    
                             MASS LOSS =   0.000000                                 MASS LOSS =   0.000000    
                                         -------------------                                    --------------
                             TOTAL OUT =   5058.143                                 TOTAL OUT =   24.86381    

                        NET (IN - OUT) = -0.1367188E-01                        NET (IN - OUT) =   0.000000    
                 DISCREPANCY (PERCENT) = -0.2702948E-03                 DISCREPANCY (PERCENT) =   0.000000    
                                              FLOW ERR (QIN-QOUT-DV) = -0.9536743E-06 [L3/T]




 >>>>>>>>>>>>>>>>>>>>>>>>>>>>>>>>>>>>>>>>>>>>>>>>>>>>>>>FOR COMPONENT NO. 01<<<<<<<<<<<<<<<<<<<<<<<<<<<<<<<<<<<<<<<<<<<<<<<<<<<<<<<


                                            -------------------------------------------
                                                      TRANSPORT STEP NO.   71
                                            -------------------------------------------

 TOTAL ELAPSED TIME SINCE BEGINNING OF SIMULATION =   54180.00    D   
 .....................................................................

                     CUMULATIVE MASS BUDGETS AT END OF TRANSPORT STEP   71, TIME STEP    1, STRESS PERIOD    3
                     -----------------------------------------------------------------------------------------

                                                             IN                           OUT
                                                      ----------------             ----------------
                               CONSTANT CONCENTRATION:    0.000000                    0.000000    
                                        CONSTANT HEAD:    676.2899                   -375.5827    
                                               STREAM:    0.000000                   -300.7113    
                               MASS STOR (FLOW MODEL):   0.5161509E-02              -0.6986623E-07
                                MASS STORAGE (SOLUTE):    0.000000                    0.000000    
                            ---------------------------------------------------------------------------
                                              [TOTAL]:    676.2950     KG            -676.2941     KG  

                                                          NET (IN - OUT):   0.9765625E-03
                                                   DISCREPANCY (PERCENT):   0.1443990E-03
     2 CALLS TO GCG PACKAGE FOR TRANSPORT TIME STEP    72 IN FLOW TIME STEP     1 STRESS PERIOD     3
      2 TOTAL ITERATIONS
  MAXIMUM CONCENTRATION CHANGES FOR EACH ITERATION:
  MAX. CHANGE LAYER,ROW,COL MAX. CHANGE LAYER,ROW,COL MAX. CHANGE LAYER,ROW,COL MAX. CHANGE LAYER,ROW,COL MAX. CHANGE LAYER,ROW,COL
 ------------------------------------------------------------------------------------------------------------------------------------
    0.000     (  1,  1,  1)   0.000     (  1,  1,  1)


                     STREAM MASS BUDGETS AT END OF TRANSPORT STEP   72, TIME STEP    1, STRESS PERIOD    3 FOR COMPONENT   1
                     -------------------------------------------------------------------------------------------------------

                                         CUMULATIVE MASS [M]                                     MASS FOR THIS TIME STEP [M]
                                         -------------------                                    --------------
                      STREAM DEPLETION =   1227.585                          STREAM DEPLETION =   15.48516    
                      INFLOW TO STREAM =   3553.642                          INFLOW TO STREAM =   8.325000    
                          GW TO STREAM =   301.7104                              GW TO STREAM =  0.9990391    
                         PRECIPITATION =   0.000000                             PRECIPITATION =   0.000000    
                                RUNOFF =   0.000000                                    RUNOFF =   0.000000    
                CONSTANT CONCENTRATION =   0.000000                    CONSTANT CONCENTRATION =   0.000000    
                             MASS GAIN =   0.000000                                 MASS GAIN =   0.000000    
                                         -------------------                                    --------------
                              TOTAL IN =   5082.938                                  TOTAL IN =   24.80920    

                   STREAM ACCUMULATION =   1918.002                       STREAM ACCUMULATION =   1.675564    
                        STREAM OUTFLOW =   3164.950                            STREAM OUTFLOW =   23.13364    
                          STREAM TO GW =   0.000000                              STREAM TO GW =   0.000000    
                CONSTANT CONCENTRATION =   0.000000                    CONSTANT CONCENTRATION =   0.000000    
                           EVAPORATION =   0.000000                               EVAPORATION =   0.000000    
                             MASS LOSS =   0.000000                                 MASS LOSS =   0.000000    
                                         -------------------                                    --------------
                             TOTAL OUT =   5082.952                                 TOTAL OUT =   24.80920    

                        NET (IN - OUT) = -0.1416016E-01                        NET (IN - OUT) = -0.1907349E-05
                 DISCREPANCY (PERCENT) = -0.2785818E-03                 DISCREPANCY (PERCENT) = -0.7688070E-05
                                              FLOW ERR (QIN-QOUT-DV) = -0.9536743E-06 [L3/T]




 >>>>>>>>>>>>>>>>>>>>>>>>>>>>>>>>>>>>>>>>>>>>>>>>>>>>>>>FOR COMPONENT NO. 01<<<<<<<<<<<<<<<<<<<<<<<<<<<<<<<<<<<<<<<<<<<<<<<<<<<<<<<


                                            -------------------------------------------
                                                      TRANSPORT STEP NO.   72
                                            -------------------------------------------

 TOTAL ELAPSED TIME SINCE BEGINNING OF SIMULATION =   54360.00    D   
 .....................................................................

                     CUMULATIVE MASS BUDGETS AT END OF TRANSPORT STEP   72, TIME STEP    1, STRESS PERIOD    3
                     -----------------------------------------------------------------------------------------

                                                             IN                           OUT
                                                      ----------------             ----------------
                               CONSTANT CONCENTRATION:    0.000000                    0.000000    
                                        CONSTANT HEAD:    678.5367                   -376.8305    
                                               STREAM:    0.000000                   -301.7104    
                               MASS STOR (FLOW MODEL):   0.5161509E-02              -0.6986623E-07
                                MASS STORAGE (SOLUTE):    0.000000                    0.000000    
                            ---------------------------------------------------------------------------
                                              [TOTAL]:    678.5419     KG            -678.5409     KG  

                                                          NET (IN - OUT):   0.9765625E-03
                                                   DISCREPANCY (PERCENT):   0.1439208E-03
     2 CALLS TO GCG PACKAGE FOR TRANSPORT TIME STEP    73 IN FLOW TIME STEP     1 STRESS PERIOD     3
      2 TOTAL ITERATIONS
  MAXIMUM CONCENTRATION CHANGES FOR EACH ITERATION:
  MAX. CHANGE LAYER,ROW,COL MAX. CHANGE LAYER,ROW,COL MAX. CHANGE LAYER,ROW,COL MAX. CHANGE LAYER,ROW,COL MAX. CHANGE LAYER,ROW,COL
 ------------------------------------------------------------------------------------------------------------------------------------
    0.000     (  1,  1,  1)   0.000     (  1,  1,  1)


                     STREAM MASS BUDGETS AT END OF TRANSPORT STEP   73, TIME STEP    1, STRESS PERIOD    3 FOR COMPONENT   1
                     -------------------------------------------------------------------------------------------------------

                                         CUMULATIVE MASS [M]                                     MASS FOR THIS TIME STEP [M]
                                         -------------------                                    --------------
                      STREAM DEPLETION =   1243.016                          STREAM DEPLETION =   15.43073    
                      INFLOW TO STREAM =   3561.967                          INFLOW TO STREAM =   8.325000    
                          GW TO STREAM =   302.7094                              GW TO STREAM =  0.9990391    
                         PRECIPITATION =   0.000000                             PRECIPITATION =   0.000000    
                                RUNOFF =   0.000000                                    RUNOFF =   0.000000    
                CONSTANT CONCENTRATION =   0.000000                    CONSTANT CONCENTRATION =   0.000000    
                             MASS GAIN =   0.000000                                 MASS GAIN =   0.000000    
                                         -------------------                                    --------------
                              TOTAL IN =   5107.692                                  TOTAL IN =   24.75477    

                   STREAM ACCUMULATION =   1919.452                       STREAM ACCUMULATION =   1.450002    
                        STREAM OUTFLOW =   3188.255                            STREAM OUTFLOW =   23.30476    
                          STREAM TO GW =   0.000000                              STREAM TO GW =   0.000000    
                CONSTANT CONCENTRATION =   0.000000                    CONSTANT CONCENTRATION =   0.000000    
                           EVAPORATION =   0.000000                               EVAPORATION =   0.000000    
                             MASS LOSS =   0.000000                                 MASS LOSS =   0.000000    
                                         -------------------                                    --------------
                             TOTAL OUT =   5107.706                                 TOTAL OUT =   24.75477    

                        NET (IN - OUT) = -0.1367188E-01                        NET (IN - OUT) =  0.1907349E-05
                 DISCREPANCY (PERCENT) = -0.2676719E-03                 DISCREPANCY (PERCENT) =  0.7704974E-05
                                              FLOW ERR (QIN-QOUT-DV) = -0.9536743E-06 [L3/T]




 >>>>>>>>>>>>>>>>>>>>>>>>>>>>>>>>>>>>>>>>>>>>>>>>>>>>>>>FOR COMPONENT NO. 01<<<<<<<<<<<<<<<<<<<<<<<<<<<<<<<<<<<<<<<<<<<<<<<<<<<<<<<


                                            -------------------------------------------
                                                      TRANSPORT STEP NO.   73
                                            -------------------------------------------

 TOTAL ELAPSED TIME SINCE BEGINNING OF SIMULATION =   54540.00    D   
 .....................................................................

                     CUMULATIVE MASS BUDGETS AT END OF TRANSPORT STEP   73, TIME STEP    1, STRESS PERIOD    3
                     -----------------------------------------------------------------------------------------

                                                             IN                           OUT
                                                      ----------------             ----------------
                               CONSTANT CONCENTRATION:    0.000000                    0.000000    
                                        CONSTANT HEAD:    680.7835                   -378.0783    
                                               STREAM:    0.000000                   -302.7094    
                               MASS STOR (FLOW MODEL):   0.5161509E-02              -0.6986623E-07
                                MASS STORAGE (SOLUTE):    0.000000                    0.000000    
                            ---------------------------------------------------------------------------
                                              [TOTAL]:    680.7887     KG            -680.7877     KG  

                                                          NET (IN - OUT):   0.9765625E-03
                                                   DISCREPANCY (PERCENT):   0.1434459E-03
     2 CALLS TO GCG PACKAGE FOR TRANSPORT TIME STEP    74 IN FLOW TIME STEP     1 STRESS PERIOD     3
      2 TOTAL ITERATIONS
  MAXIMUM CONCENTRATION CHANGES FOR EACH ITERATION:
  MAX. CHANGE LAYER,ROW,COL MAX. CHANGE LAYER,ROW,COL MAX. CHANGE LAYER,ROW,COL MAX. CHANGE LAYER,ROW,COL MAX. CHANGE LAYER,ROW,COL
 ------------------------------------------------------------------------------------------------------------------------------------
    0.000     (  1,  1,  1)   0.000     (  1,  1,  1)


                     STREAM MASS BUDGETS AT END OF TRANSPORT STEP   74, TIME STEP    1, STRESS PERIOD    3 FOR COMPONENT   1
                     -------------------------------------------------------------------------------------------------------

                                         CUMULATIVE MASS [M]                                     MASS FOR THIS TIME STEP [M]
                                         -------------------                                    --------------
                      STREAM DEPLETION =   1258.393                          STREAM DEPLETION =   15.37668    
                      INFLOW TO STREAM =   3570.292                          INFLOW TO STREAM =   8.325000    
                          GW TO STREAM =   303.7085                              GW TO STREAM =  0.9990391    
                         PRECIPITATION =   0.000000                             PRECIPITATION =   0.000000    
                                RUNOFF =   0.000000                                    RUNOFF =   0.000000    
                CONSTANT CONCENTRATION =   0.000000                    CONSTANT CONCENTRATION =   0.000000    
                             MASS GAIN =   0.000000                                 MASS GAIN =   0.000000    
                                         -------------------                                    --------------
                              TOTAL IN =   5132.394                                  TOTAL IN =   24.70072    

                   STREAM ACCUMULATION =   1920.689                       STREAM ACCUMULATION =   1.237778    
                        STREAM OUTFLOW =   3211.718                            STREAM OUTFLOW =   23.46294    
                          STREAM TO GW =   0.000000                              STREAM TO GW =   0.000000    
                CONSTANT CONCENTRATION =   0.000000                    CONSTANT CONCENTRATION =   0.000000    
                           EVAPORATION =   0.000000                               EVAPORATION =   0.000000    
                             MASS LOSS =   0.000000                                 MASS LOSS =   0.000000    
                                         -------------------                                    --------------
                             TOTAL OUT =   5132.407                                 TOTAL OUT =   24.70072    

                        NET (IN - OUT) = -0.1318359E-01                        NET (IN - OUT) =  0.1907349E-05
                 DISCREPANCY (PERCENT) = -0.2568699E-03                 DISCREPANCY (PERCENT) =  0.7721835E-05
                                              FLOW ERR (QIN-QOUT-DV) = -0.9536743E-06 [L3/T]




 >>>>>>>>>>>>>>>>>>>>>>>>>>>>>>>>>>>>>>>>>>>>>>>>>>>>>>>FOR COMPONENT NO. 01<<<<<<<<<<<<<<<<<<<<<<<<<<<<<<<<<<<<<<<<<<<<<<<<<<<<<<<


                                            -------------------------------------------
                                                      TRANSPORT STEP NO.   74
                                            -------------------------------------------

 TOTAL ELAPSED TIME SINCE BEGINNING OF SIMULATION =   54720.00    D   
 .....................................................................

                     CUMULATIVE MASS BUDGETS AT END OF TRANSPORT STEP   74, TIME STEP    1, STRESS PERIOD    3
                     -----------------------------------------------------------------------------------------

                                                             IN                           OUT
                                                      ----------------             ----------------
                               CONSTANT CONCENTRATION:    0.000000                    0.000000    
                                        CONSTANT HEAD:    683.0303                   -379.3260    
                                               STREAM:    0.000000                   -303.7085    
                               MASS STOR (FLOW MODEL):   0.5161509E-02              -0.6986623E-07
                                MASS STORAGE (SOLUTE):    0.000000                    0.000000    
                            ---------------------------------------------------------------------------
                                              [TOTAL]:    683.0355     KG            -683.0345     KG  

                                                          NET (IN - OUT):   0.9765625E-03
                                                   DISCREPANCY (PERCENT):   0.1429740E-03
     2 CALLS TO GCG PACKAGE FOR TRANSPORT TIME STEP    75 IN FLOW TIME STEP     1 STRESS PERIOD     3
      2 TOTAL ITERATIONS
  MAXIMUM CONCENTRATION CHANGES FOR EACH ITERATION:
  MAX. CHANGE LAYER,ROW,COL MAX. CHANGE LAYER,ROW,COL MAX. CHANGE LAYER,ROW,COL MAX. CHANGE LAYER,ROW,COL MAX. CHANGE LAYER,ROW,COL
 ------------------------------------------------------------------------------------------------------------------------------------
    0.000     (  1,  1,  1)   0.000     (  1,  1,  1)


                     STREAM MASS BUDGETS AT END OF TRANSPORT STEP   75, TIME STEP    1, STRESS PERIOD    3 FOR COMPONENT   1
                     -------------------------------------------------------------------------------------------------------

                                         CUMULATIVE MASS [M]                                     MASS FOR THIS TIME STEP [M]
                                         -------------------                                    --------------
                      STREAM DEPLETION =   1273.715                          STREAM DEPLETION =   15.32285    
                      INFLOW TO STREAM =   3578.617                          INFLOW TO STREAM =   8.325000    
                          GW TO STREAM =   304.7076                              GW TO STREAM =  0.9990391    
                         PRECIPITATION =   0.000000                             PRECIPITATION =   0.000000    
                                RUNOFF =   0.000000                                    RUNOFF =   0.000000    
                CONSTANT CONCENTRATION =   0.000000                    CONSTANT CONCENTRATION =   0.000000    
                             MASS GAIN =   0.000000                                 MASS GAIN =   0.000000    
                                         -------------------                                    --------------
                              TOTAL IN =   5157.040                                  TOTAL IN =   24.64689    

                   STREAM ACCUMULATION =   1921.729                       STREAM ACCUMULATION =   1.039217    
                        STREAM OUTFLOW =   3235.325                            STREAM OUTFLOW =   23.60768    
                          STREAM TO GW =   0.000000                              STREAM TO GW =   0.000000    
                CONSTANT CONCENTRATION =   0.000000                    CONSTANT CONCENTRATION =   0.000000    
                           EVAPORATION =   0.000000                               EVAPORATION =   0.000000    
                             MASS LOSS =   0.000000                                 MASS LOSS =   0.000000    
                                         -------------------                                    --------------
                             TOTAL OUT =   5157.054                                 TOTAL OUT =   24.64690    

                        NET (IN - OUT) = -0.1367188E-01                        NET (IN - OUT) = -0.5722046E-05
                 DISCREPANCY (PERCENT) = -0.2651105E-03                 DISCREPANCY (PERCENT) = -0.2321609E-04
                                              FLOW ERR (QIN-QOUT-DV) = -0.9536743E-06 [L3/T]




 >>>>>>>>>>>>>>>>>>>>>>>>>>>>>>>>>>>>>>>>>>>>>>>>>>>>>>>FOR COMPONENT NO. 01<<<<<<<<<<<<<<<<<<<<<<<<<<<<<<<<<<<<<<<<<<<<<<<<<<<<<<<


                                            -------------------------------------------
                                                      TRANSPORT STEP NO.   75
                                            -------------------------------------------

 TOTAL ELAPSED TIME SINCE BEGINNING OF SIMULATION =   54900.00    D   
 .....................................................................

                     CUMULATIVE MASS BUDGETS AT END OF TRANSPORT STEP   75, TIME STEP    1, STRESS PERIOD    3
                     -----------------------------------------------------------------------------------------

                                                             IN                           OUT
                                                      ----------------             ----------------
                               CONSTANT CONCENTRATION:    0.000000                    0.000000    
                                        CONSTANT HEAD:    685.2772                   -380.5738    
                                               STREAM:    0.000000                   -304.7076    
                               MASS STOR (FLOW MODEL):   0.5161509E-02              -0.6986623E-07
                                MASS STORAGE (SOLUTE):    0.000000                    0.000000    
                            ---------------------------------------------------------------------------
                                              [TOTAL]:    685.2823     KG            -685.2814     KG  

                                                          NET (IN - OUT):   0.9765625E-03
                                                   DISCREPANCY (PERCENT):   0.1425052E-03
     2 CALLS TO GCG PACKAGE FOR TRANSPORT TIME STEP    76 IN FLOW TIME STEP     1 STRESS PERIOD     3
      2 TOTAL ITERATIONS
  MAXIMUM CONCENTRATION CHANGES FOR EACH ITERATION:
  MAX. CHANGE LAYER,ROW,COL MAX. CHANGE LAYER,ROW,COL MAX. CHANGE LAYER,ROW,COL MAX. CHANGE LAYER,ROW,COL MAX. CHANGE LAYER,ROW,COL
 ------------------------------------------------------------------------------------------------------------------------------------
    0.000     (  1,  1,  1)   0.000     (  1,  1,  1)


                     STREAM MASS BUDGETS AT END OF TRANSPORT STEP   76, TIME STEP    1, STRESS PERIOD    3 FOR COMPONENT   1
                     -------------------------------------------------------------------------------------------------------

                                         CUMULATIVE MASS [M]                                     MASS FOR THIS TIME STEP [M]
                                         -------------------                                    --------------
                      STREAM DEPLETION =   1288.985                          STREAM DEPLETION =   15.26940    
                      INFLOW TO STREAM =   3586.942                          INFLOW TO STREAM =   8.325000    
                          GW TO STREAM =   305.7066                              GW TO STREAM =  0.9990391    
                         PRECIPITATION =   0.000000                             PRECIPITATION =   0.000000    
                                RUNOFF =   0.000000                                    RUNOFF =   0.000000    
                CONSTANT CONCENTRATION =   0.000000                    CONSTANT CONCENTRATION =   0.000000    
                             MASS GAIN =   0.000000                                 MASS GAIN =   0.000000    
                                         -------------------                                    --------------
                              TOTAL IN =   5181.634                                  TOTAL IN =   24.59343    

                   STREAM ACCUMULATION =   1922.583                       STREAM ACCUMULATION =  0.8549501    
                        STREAM OUTFLOW =   3259.064                            STREAM OUTFLOW =   23.73849    
                          STREAM TO GW =   0.000000                              STREAM TO GW =   0.000000    
                CONSTANT CONCENTRATION =   0.000000                    CONSTANT CONCENTRATION =   0.000000    
                           EVAPORATION =   0.000000                               EVAPORATION =   0.000000    
                             MASS LOSS =   0.000000                                 MASS LOSS =   0.000000    
                                         -------------------                                    --------------
                             TOTAL OUT =   5181.647                                 TOTAL OUT =   24.59344    

                        NET (IN - OUT) = -0.1367188E-01                        NET (IN - OUT) = -0.5722046E-05
                 DISCREPANCY (PERCENT) = -0.2638522E-03                 DISCREPANCY (PERCENT) = -0.2326656E-04
                                              FLOW ERR (QIN-QOUT-DV) = -0.9536743E-06 [L3/T]




 >>>>>>>>>>>>>>>>>>>>>>>>>>>>>>>>>>>>>>>>>>>>>>>>>>>>>>>FOR COMPONENT NO. 01<<<<<<<<<<<<<<<<<<<<<<<<<<<<<<<<<<<<<<<<<<<<<<<<<<<<<<<


                                            -------------------------------------------
                                                      TRANSPORT STEP NO.   76
                                            -------------------------------------------

 TOTAL ELAPSED TIME SINCE BEGINNING OF SIMULATION =   55080.00    D   
 .....................................................................

                     CUMULATIVE MASS BUDGETS AT END OF TRANSPORT STEP   76, TIME STEP    1, STRESS PERIOD    3
                     -----------------------------------------------------------------------------------------

                                                             IN                           OUT
                                                      ----------------             ----------------
                               CONSTANT CONCENTRATION:    0.000000                    0.000000    
                                        CONSTANT HEAD:    687.5240                   -381.8216    
                                               STREAM:    0.000000                   -305.7066    
                               MASS STOR (FLOW MODEL):   0.5161509E-02              -0.6986623E-07
                                MASS STORAGE (SOLUTE):    0.000000                    0.000000    
                            ---------------------------------------------------------------------------
                                              [TOTAL]:    687.5292     KG            -687.5282     KG  

                                                          NET (IN - OUT):   0.9765625E-03
                                                   DISCREPANCY (PERCENT):   0.1420395E-03
     2 CALLS TO GCG PACKAGE FOR TRANSPORT TIME STEP    77 IN FLOW TIME STEP     1 STRESS PERIOD     3
      2 TOTAL ITERATIONS
  MAXIMUM CONCENTRATION CHANGES FOR EACH ITERATION:
  MAX. CHANGE LAYER,ROW,COL MAX. CHANGE LAYER,ROW,COL MAX. CHANGE LAYER,ROW,COL MAX. CHANGE LAYER,ROW,COL MAX. CHANGE LAYER,ROW,COL
 ------------------------------------------------------------------------------------------------------------------------------------
    0.000     (  1,  1,  1)   0.000     (  1,  1,  1)


                     STREAM MASS BUDGETS AT END OF TRANSPORT STEP   77, TIME STEP    1, STRESS PERIOD    3 FOR COMPONENT   1
                     -------------------------------------------------------------------------------------------------------

                                         CUMULATIVE MASS [M]                                     MASS FOR THIS TIME STEP [M]
                                         -------------------                                    --------------
                      STREAM DEPLETION =   1304.201                          STREAM DEPLETION =   15.21653    
                      INFLOW TO STREAM =   3595.267                          INFLOW TO STREAM =   8.325000    
                          GW TO STREAM =   306.7057                              GW TO STREAM =  0.9990391    
                         PRECIPITATION =   0.000000                             PRECIPITATION =   0.000000    
                                RUNOFF =   0.000000                                    RUNOFF =   0.000000    
                CONSTANT CONCENTRATION =   0.000000                    CONSTANT CONCENTRATION =   0.000000    
                             MASS GAIN =   0.000000                                 MASS GAIN =   0.000000    
                                         -------------------                                    --------------
                              TOTAL IN =   5206.174                                  TOTAL IN =   24.54057    

                   STREAM ACCUMULATION =   1923.269                       STREAM ACCUMULATION =  0.6857255    
                        STREAM OUTFLOW =   3282.918                            STREAM OUTFLOW =   23.85485    
                          STREAM TO GW =   0.000000                              STREAM TO GW =   0.000000    
                CONSTANT CONCENTRATION =   0.000000                    CONSTANT CONCENTRATION =   0.000000    
                           EVAPORATION =   0.000000                               EVAPORATION =   0.000000    
                             MASS LOSS =   0.000000                                 MASS LOSS =   0.000000    
                                         -------------------                                    --------------
                             TOTAL OUT =   5206.188                                 TOTAL OUT =   24.54058    

                        NET (IN - OUT) = -0.1318359E-01                        NET (IN - OUT) = -0.9536743E-05
                 DISCREPANCY (PERCENT) = -0.2532297E-03                 DISCREPANCY (PERCENT) = -0.3886113E-04
                                              FLOW ERR (QIN-QOUT-DV) = -0.9536743E-06 [L3/T]




 >>>>>>>>>>>>>>>>>>>>>>>>>>>>>>>>>>>>>>>>>>>>>>>>>>>>>>>FOR COMPONENT NO. 01<<<<<<<<<<<<<<<<<<<<<<<<<<<<<<<<<<<<<<<<<<<<<<<<<<<<<<<


                                            -------------------------------------------
                                                      TRANSPORT STEP NO.   77
                                            -------------------------------------------

 TOTAL ELAPSED TIME SINCE BEGINNING OF SIMULATION =   55260.00    D   
 .....................................................................

                     CUMULATIVE MASS BUDGETS AT END OF TRANSPORT STEP   77, TIME STEP    1, STRESS PERIOD    3
                     -----------------------------------------------------------------------------------------

                                                             IN                           OUT
                                                      ----------------             ----------------
                               CONSTANT CONCENTRATION:    0.000000                    0.000000    
                                        CONSTANT HEAD:    689.7708                   -383.0694    
                                               STREAM:    0.000000                   -306.7057    
                               MASS STOR (FLOW MODEL):   0.5161509E-02              -0.6986623E-07
                                MASS STORAGE (SOLUTE):    0.000000                    0.000000    
                            ---------------------------------------------------------------------------
                                              [TOTAL]:    689.7760     KG            -689.7750     KG  

                                                          NET (IN - OUT):   0.9765625E-03
                                                   DISCREPANCY (PERCENT):   0.1415769E-03
     2 CALLS TO GCG PACKAGE FOR TRANSPORT TIME STEP    78 IN FLOW TIME STEP     1 STRESS PERIOD     3
      2 TOTAL ITERATIONS
  MAXIMUM CONCENTRATION CHANGES FOR EACH ITERATION:
  MAX. CHANGE LAYER,ROW,COL MAX. CHANGE LAYER,ROW,COL MAX. CHANGE LAYER,ROW,COL MAX. CHANGE LAYER,ROW,COL MAX. CHANGE LAYER,ROW,COL
 ------------------------------------------------------------------------------------------------------------------------------------
    0.000     (  1,  1,  1)   0.000     (  1,  1,  1)


                     STREAM MASS BUDGETS AT END OF TRANSPORT STEP   78, TIME STEP    1, STRESS PERIOD    3 FOR COMPONENT   1
                     -------------------------------------------------------------------------------------------------------

                                         CUMULATIVE MASS [M]                                     MASS FOR THIS TIME STEP [M]
                                         -------------------                                    --------------
                      STREAM DEPLETION =   1319.366                          STREAM DEPLETION =   15.16423    
                      INFLOW TO STREAM =   3603.592                          INFLOW TO STREAM =   8.325000    
                          GW TO STREAM =   307.7047                              GW TO STREAM =  0.9990391    
                         PRECIPITATION =   0.000000                             PRECIPITATION =   0.000000    
                                RUNOFF =   0.000000                                    RUNOFF =   0.000000    
                CONSTANT CONCENTRATION =   0.000000                    CONSTANT CONCENTRATION =   0.000000    
                             MASS GAIN =   0.000000                                 MASS GAIN =   0.000000    
                                         -------------------                                    --------------
                              TOTAL IN =   5230.662                                  TOTAL IN =   24.48827    

                   STREAM ACCUMULATION =   1923.801                       STREAM ACCUMULATION =  0.5320132    
                        STREAM OUTFLOW =   3306.875                            STREAM OUTFLOW =   23.95626    
                          STREAM TO GW =   0.000000                              STREAM TO GW =   0.000000    
                CONSTANT CONCENTRATION =   0.000000                    CONSTANT CONCENTRATION =   0.000000    
                           EVAPORATION =   0.000000                               EVAPORATION =   0.000000    
                             MASS LOSS =   0.000000                                 MASS LOSS =   0.000000    
                                         -------------------                                    --------------
                             TOTAL OUT =   5230.676                                 TOTAL OUT =   24.48827    

                        NET (IN - OUT) = -0.1367188E-01                        NET (IN - OUT) = -0.5722046E-05
                 DISCREPANCY (PERCENT) = -0.2613791E-03                 DISCREPANCY (PERCENT) = -0.2336648E-04
                                              FLOW ERR (QIN-QOUT-DV) = -0.9536743E-06 [L3/T]




 >>>>>>>>>>>>>>>>>>>>>>>>>>>>>>>>>>>>>>>>>>>>>>>>>>>>>>>FOR COMPONENT NO. 01<<<<<<<<<<<<<<<<<<<<<<<<<<<<<<<<<<<<<<<<<<<<<<<<<<<<<<<


                                            -------------------------------------------
                                                      TRANSPORT STEP NO.   78
                                            -------------------------------------------

 TOTAL ELAPSED TIME SINCE BEGINNING OF SIMULATION =   55440.00    D   
 .....................................................................

                     CUMULATIVE MASS BUDGETS AT END OF TRANSPORT STEP   78, TIME STEP    1, STRESS PERIOD    3
                     -----------------------------------------------------------------------------------------

                                                             IN                           OUT
                                                      ----------------             ----------------
                               CONSTANT CONCENTRATION:    0.000000                    0.000000    
                                        CONSTANT HEAD:    692.0176                   -384.3171    
                                               STREAM:    0.000000                   -307.7047    
                               MASS STOR (FLOW MODEL):   0.5161509E-02              -0.6986623E-07
                                MASS STORAGE (SOLUTE):    0.000000                    0.000000    
                            ---------------------------------------------------------------------------
                                              [TOTAL]:    692.0228     KG            -692.0219     KG  

                                                          NET (IN - OUT):   0.9765625E-03
                                                   DISCREPANCY (PERCENT):   0.1411172E-03
     2 CALLS TO GCG PACKAGE FOR TRANSPORT TIME STEP    79 IN FLOW TIME STEP     1 STRESS PERIOD     3
      2 TOTAL ITERATIONS
  MAXIMUM CONCENTRATION CHANGES FOR EACH ITERATION:
  MAX. CHANGE LAYER,ROW,COL MAX. CHANGE LAYER,ROW,COL MAX. CHANGE LAYER,ROW,COL MAX. CHANGE LAYER,ROW,COL MAX. CHANGE LAYER,ROW,COL
 ------------------------------------------------------------------------------------------------------------------------------------
    0.000     (  1,  1,  1)   0.000     (  1,  1,  1)


                     STREAM MASS BUDGETS AT END OF TRANSPORT STEP   79, TIME STEP    1, STRESS PERIOD    3 FOR COMPONENT   1
                     -------------------------------------------------------------------------------------------------------

                                         CUMULATIVE MASS [M]                                     MASS FOR THIS TIME STEP [M]
                                         -------------------                                    --------------
                      STREAM DEPLETION =   1334.479                          STREAM DEPLETION =   15.11292    
                      INFLOW TO STREAM =   3611.917                          INFLOW TO STREAM =   8.325000    
                          GW TO STREAM =   308.7038                              GW TO STREAM =  0.9990391    
                         PRECIPITATION =   0.000000                             PRECIPITATION =   0.000000    
                                RUNOFF =   0.000000                                    RUNOFF =   0.000000    
                CONSTANT CONCENTRATION =   0.000000                    CONSTANT CONCENTRATION =   0.000000    
                             MASS GAIN =   0.000000                                 MASS GAIN =   0.000000    
                                         -------------------                                    --------------
                              TOTAL IN =   5255.099                                  TOTAL IN =   24.43696    

                   STREAM ACCUMULATION =   1924.196                       STREAM ACCUMULATION =  0.3947707    
                        STREAM OUTFLOW =   3330.917                            STREAM OUTFLOW =   24.04219    
                          STREAM TO GW =   0.000000                              STREAM TO GW =   0.000000    
                CONSTANT CONCENTRATION =   0.000000                    CONSTANT CONCENTRATION =   0.000000    
                           EVAPORATION =   0.000000                               EVAPORATION =   0.000000    
                             MASS LOSS =   0.000000                                 MASS LOSS =   0.000000    
                                         -------------------                                    --------------
                             TOTAL OUT =   5255.113                                 TOTAL OUT =   24.43696    

                        NET (IN - OUT) = -0.1367188E-01                        NET (IN - OUT) = -0.5722046E-05
                 DISCREPANCY (PERCENT) = -0.2601637E-03                 DISCREPANCY (PERCENT) = -0.2341554E-04
                                              FLOW ERR (QIN-QOUT-DV) = -0.9536743E-06 [L3/T]




 >>>>>>>>>>>>>>>>>>>>>>>>>>>>>>>>>>>>>>>>>>>>>>>>>>>>>>>FOR COMPONENT NO. 01<<<<<<<<<<<<<<<<<<<<<<<<<<<<<<<<<<<<<<<<<<<<<<<<<<<<<<<


                                            -------------------------------------------
                                                      TRANSPORT STEP NO.   79
                                            -------------------------------------------

 TOTAL ELAPSED TIME SINCE BEGINNING OF SIMULATION =   55620.00    D   
 .....................................................................

                     CUMULATIVE MASS BUDGETS AT END OF TRANSPORT STEP   79, TIME STEP    1, STRESS PERIOD    3
                     -----------------------------------------------------------------------------------------

                                                             IN                           OUT
                                                      ----------------             ----------------
                               CONSTANT CONCENTRATION:    0.000000                    0.000000    
                                        CONSTANT HEAD:    694.2645                   -385.5649    
                                               STREAM:    0.000000                   -308.7038    
                               MASS STOR (FLOW MODEL):   0.5161509E-02              -0.6986623E-07
                                MASS STORAGE (SOLUTE):    0.000000                    0.000000    
                            ---------------------------------------------------------------------------
                                              [TOTAL]:    694.2697     KG            -694.2687     KG  

                                                          NET (IN - OUT):   0.9765625E-03
                                                   DISCREPANCY (PERCENT):   0.1406605E-03
     2 CALLS TO GCG PACKAGE FOR TRANSPORT TIME STEP    80 IN FLOW TIME STEP     1 STRESS PERIOD     3
      2 TOTAL ITERATIONS
  MAXIMUM CONCENTRATION CHANGES FOR EACH ITERATION:
  MAX. CHANGE LAYER,ROW,COL MAX. CHANGE LAYER,ROW,COL MAX. CHANGE LAYER,ROW,COL MAX. CHANGE LAYER,ROW,COL MAX. CHANGE LAYER,ROW,COL
 ------------------------------------------------------------------------------------------------------------------------------------
    0.000     (  1,  1,  1)   0.000     (  1,  1,  1)


                     STREAM MASS BUDGETS AT END OF TRANSPORT STEP   80, TIME STEP    1, STRESS PERIOD    3 FOR COMPONENT   1
                     -------------------------------------------------------------------------------------------------------

                                         CUMULATIVE MASS [M]                                     MASS FOR THIS TIME STEP [M]
                                         -------------------                                    --------------
                      STREAM DEPLETION =   1349.541                          STREAM DEPLETION =   15.06285    
                      INFLOW TO STREAM =   3620.242                          INFLOW TO STREAM =   8.325000    
                          GW TO STREAM =   309.7028                              GW TO STREAM =  0.9990391    
                         PRECIPITATION =   0.000000                             PRECIPITATION =   0.000000    
                                RUNOFF =   0.000000                                    RUNOFF =   0.000000    
                CONSTANT CONCENTRATION =   0.000000                    CONSTANT CONCENTRATION =   0.000000    
                             MASS GAIN =   0.000000                                 MASS GAIN =   0.000000    
                                         -------------------                                    --------------
                              TOTAL IN =   5279.486                                  TOTAL IN =   24.38688    

                   STREAM ACCUMULATION =   1924.471                       STREAM ACCUMULATION =  0.2747320    
                        STREAM OUTFLOW =   3355.029                            STREAM OUTFLOW =   24.11216    
                          STREAM TO GW =   0.000000                              STREAM TO GW =   0.000000    
                CONSTANT CONCENTRATION =   0.000000                    CONSTANT CONCENTRATION =   0.000000    
                           EVAPORATION =   0.000000                               EVAPORATION =   0.000000    
                             MASS LOSS =   0.000000                                 MASS LOSS =   0.000000    
                                         -------------------                                    --------------
                             TOTAL OUT =   5279.500                                 TOTAL OUT =   24.38689    

                        NET (IN - OUT) = -0.1367188E-01                        NET (IN - OUT) = -0.5722046E-05
                 DISCREPANCY (PERCENT) = -0.2589619E-03                 DISCREPANCY (PERCENT) = -0.2346362E-04
                                              FLOW ERR (QIN-QOUT-DV) = -0.9536743E-06 [L3/T]




 >>>>>>>>>>>>>>>>>>>>>>>>>>>>>>>>>>>>>>>>>>>>>>>>>>>>>>>FOR COMPONENT NO. 01<<<<<<<<<<<<<<<<<<<<<<<<<<<<<<<<<<<<<<<<<<<<<<<<<<<<<<<


                                            -------------------------------------------
                                                      TRANSPORT STEP NO.   80
                                            -------------------------------------------

 TOTAL ELAPSED TIME SINCE BEGINNING OF SIMULATION =   55800.00    D   
 .....................................................................

                     CUMULATIVE MASS BUDGETS AT END OF TRANSPORT STEP   80, TIME STEP    1, STRESS PERIOD    3
                     -----------------------------------------------------------------------------------------

                                                             IN                           OUT
                                                      ----------------             ----------------
                               CONSTANT CONCENTRATION:    0.000000                    0.000000    
                                        CONSTANT HEAD:    696.5113                   -386.8127    
                                               STREAM:    0.000000                   -309.7028    
                               MASS STOR (FLOW MODEL):   0.5161509E-02              -0.6986623E-07
                                MASS STORAGE (SOLUTE):    0.000000                    0.000000    
                            ---------------------------------------------------------------------------
                                              [TOTAL]:    696.5165     KG            -696.5155     KG  

                                                          NET (IN - OUT):   0.9765625E-03
                                                   DISCREPANCY (PERCENT):   0.1402068E-03
     2 CALLS TO GCG PACKAGE FOR TRANSPORT TIME STEP    81 IN FLOW TIME STEP     1 STRESS PERIOD     3
      2 TOTAL ITERATIONS
  MAXIMUM CONCENTRATION CHANGES FOR EACH ITERATION:
  MAX. CHANGE LAYER,ROW,COL MAX. CHANGE LAYER,ROW,COL MAX. CHANGE LAYER,ROW,COL MAX. CHANGE LAYER,ROW,COL MAX. CHANGE LAYER,ROW,COL
 ------------------------------------------------------------------------------------------------------------------------------------
    0.000     (  1,  1,  1)   0.000     (  1,  1,  1)


                     STREAM MASS BUDGETS AT END OF TRANSPORT STEP   81, TIME STEP    1, STRESS PERIOD    3 FOR COMPONENT   1
                     -------------------------------------------------------------------------------------------------------

                                         CUMULATIVE MASS [M]                                     MASS FOR THIS TIME STEP [M]
                                         -------------------                                    --------------
                      STREAM DEPLETION =   1364.556                          STREAM DEPLETION =   15.01486    
                      INFLOW TO STREAM =   3628.567                          INFLOW TO STREAM =   8.325000    
                          GW TO STREAM =   310.7019                              GW TO STREAM =  0.9990391    
                         PRECIPITATION =   0.000000                             PRECIPITATION =   0.000000    
                                RUNOFF =   0.000000                                    RUNOFF =   0.000000    
                CONSTANT CONCENTRATION =   0.000000                    CONSTANT CONCENTRATION =   0.000000    
                             MASS GAIN =   0.000000                                 MASS GAIN =   0.000000    
                                         -------------------                                    --------------
                              TOTAL IN =   5303.825                                  TOTAL IN =   24.33890    

                   STREAM ACCUMULATION =   1924.644                       STREAM ACCUMULATION =  0.1732312    
                        STREAM OUTFLOW =   3379.195                            STREAM OUTFLOW =   24.16566    
                          STREAM TO GW =   0.000000                              STREAM TO GW =   0.000000    
                CONSTANT CONCENTRATION =   0.000000                    CONSTANT CONCENTRATION =   0.000000    
                           EVAPORATION =   0.000000                               EVAPORATION =   0.000000    
                             MASS LOSS =   0.000000                                 MASS LOSS =   0.000000    
                                         -------------------                                    --------------
                             TOTAL OUT =   5303.839                                 TOTAL OUT =   24.33890    

                        NET (IN - OUT) = -0.1367188E-01                        NET (IN - OUT) =  0.1907349E-05
                 DISCREPANCY (PERCENT) = -0.2577735E-03                 DISCREPANCY (PERCENT) =  0.7836627E-05
                                              FLOW ERR (QIN-QOUT-DV) = -0.9536743E-06 [L3/T]




 >>>>>>>>>>>>>>>>>>>>>>>>>>>>>>>>>>>>>>>>>>>>>>>>>>>>>>>FOR COMPONENT NO. 01<<<<<<<<<<<<<<<<<<<<<<<<<<<<<<<<<<<<<<<<<<<<<<<<<<<<<<<


                                            -------------------------------------------
                                                      TRANSPORT STEP NO.   81
                                            -------------------------------------------

 TOTAL ELAPSED TIME SINCE BEGINNING OF SIMULATION =   55980.00    D   
 .....................................................................

                     CUMULATIVE MASS BUDGETS AT END OF TRANSPORT STEP   81, TIME STEP    1, STRESS PERIOD    3
                     -----------------------------------------------------------------------------------------

                                                             IN                           OUT
                                                      ----------------             ----------------
                               CONSTANT CONCENTRATION:    0.000000                    0.000000    
                                        CONSTANT HEAD:    698.7581                   -388.0605    
                                               STREAM:    0.000000                   -310.7019    
                               MASS STOR (FLOW MODEL):   0.5161509E-02              -0.6986623E-07
                                MASS STORAGE (SOLUTE):    0.000000                    0.000000    
                            ---------------------------------------------------------------------------
                                              [TOTAL]:    698.7633     KG            -698.7623     KG  

                                                          NET (IN - OUT):   0.9765625E-03
                                                   DISCREPANCY (PERCENT):   0.1397559E-03
     2 CALLS TO GCG PACKAGE FOR TRANSPORT TIME STEP    82 IN FLOW TIME STEP     1 STRESS PERIOD     3
      2 TOTAL ITERATIONS
  MAXIMUM CONCENTRATION CHANGES FOR EACH ITERATION:
  MAX. CHANGE LAYER,ROW,COL MAX. CHANGE LAYER,ROW,COL MAX. CHANGE LAYER,ROW,COL MAX. CHANGE LAYER,ROW,COL MAX. CHANGE LAYER,ROW,COL
 ------------------------------------------------------------------------------------------------------------------------------------
    0.000     (  1,  1,  1)   0.000     (  1,  1,  1)


                     STREAM MASS BUDGETS AT END OF TRANSPORT STEP   82, TIME STEP    1, STRESS PERIOD    3 FOR COMPONENT   1
                     -------------------------------------------------------------------------------------------------------

                                         CUMULATIVE MASS [M]                                     MASS FOR THIS TIME STEP [M]
                                         -------------------                                    --------------
                      STREAM DEPLETION =   1379.526                          STREAM DEPLETION =   14.96994    
                      INFLOW TO STREAM =   3636.892                          INFLOW TO STREAM =   8.325000    
                          GW TO STREAM =   311.7009                              GW TO STREAM =  0.9990391    
                         PRECIPITATION =   0.000000                             PRECIPITATION =   0.000000    
                                RUNOFF =   0.000000                                    RUNOFF =   0.000000    
                CONSTANT CONCENTRATION =   0.000000                    CONSTANT CONCENTRATION =   0.000000    
                             MASS GAIN =   0.000000                                 MASS GAIN =   0.000000    
                                         -------------------                                    --------------
                              TOTAL IN =   5328.119                                  TOTAL IN =   24.29398    

                   STREAM ACCUMULATION =   1924.736                       STREAM ACCUMULATION =  0.9169722E-01
                        STREAM OUTFLOW =   3403.397                            STREAM OUTFLOW =   24.20227    
                          STREAM TO GW =   0.000000                              STREAM TO GW =   0.000000    
                CONSTANT CONCENTRATION =   0.000000                    CONSTANT CONCENTRATION =   0.000000    
                           EVAPORATION =   0.000000                               EVAPORATION =   0.000000    
                             MASS LOSS =   0.000000                                 MASS LOSS =   0.000000    
                                         -------------------                                    --------------
                             TOTAL OUT =   5328.133                                 TOTAL OUT =   24.29397    

                        NET (IN - OUT) = -0.1367188E-01                        NET (IN - OUT) =  0.5722046E-05
                 DISCREPANCY (PERCENT) = -0.2565982E-03                 DISCREPANCY (PERCENT) =  0.2355336E-04
                                              FLOW ERR (QIN-QOUT-DV) = -0.9536743E-06 [L3/T]




 >>>>>>>>>>>>>>>>>>>>>>>>>>>>>>>>>>>>>>>>>>>>>>>>>>>>>>>FOR COMPONENT NO. 01<<<<<<<<<<<<<<<<<<<<<<<<<<<<<<<<<<<<<<<<<<<<<<<<<<<<<<<


                                            -------------------------------------------
                                                      TRANSPORT STEP NO.   82
                                            -------------------------------------------

 TOTAL ELAPSED TIME SINCE BEGINNING OF SIMULATION =   56160.00    D   
 .....................................................................

                     CUMULATIVE MASS BUDGETS AT END OF TRANSPORT STEP   82, TIME STEP    1, STRESS PERIOD    3
                     -----------------------------------------------------------------------------------------

                                                             IN                           OUT
                                                      ----------------             ----------------
                               CONSTANT CONCENTRATION:    0.000000                    0.000000    
                                        CONSTANT HEAD:    701.0049                   -389.3082    
                                               STREAM:    0.000000                   -311.7009    
                               MASS STOR (FLOW MODEL):   0.5161509E-02              -0.6986623E-07
                                MASS STORAGE (SOLUTE):    0.000000                    0.000000    
                            ---------------------------------------------------------------------------
                                              [TOTAL]:    701.0101     KG            -701.0092     KG  

                                                          NET (IN - OUT):   0.9765625E-03
                                                   DISCREPANCY (PERCENT):   0.1393080E-03
     2 CALLS TO GCG PACKAGE FOR TRANSPORT TIME STEP    83 IN FLOW TIME STEP     1 STRESS PERIOD     3
      2 TOTAL ITERATIONS
  MAXIMUM CONCENTRATION CHANGES FOR EACH ITERATION:
  MAX. CHANGE LAYER,ROW,COL MAX. CHANGE LAYER,ROW,COL MAX. CHANGE LAYER,ROW,COL MAX. CHANGE LAYER,ROW,COL MAX. CHANGE LAYER,ROW,COL
 ------------------------------------------------------------------------------------------------------------------------------------
    0.000     (  1,  1,  1)   0.000     (  1,  1,  1)


                     STREAM MASS BUDGETS AT END OF TRANSPORT STEP   83, TIME STEP    1, STRESS PERIOD    3 FOR COMPONENT   1
                     -------------------------------------------------------------------------------------------------------

                                         CUMULATIVE MASS [M]                                     MASS FOR THIS TIME STEP [M]
                                         -------------------                                    --------------
                      STREAM DEPLETION =   1394.457                          STREAM DEPLETION =   14.93040    
                      INFLOW TO STREAM =   3645.217                          INFLOW TO STREAM =   8.325000    
                          GW TO STREAM =   312.7000                              GW TO STREAM =  0.9990391    
                         PRECIPITATION =   0.000000                             PRECIPITATION =   0.000000    
                                RUNOFF =   0.000000                                    RUNOFF =   0.000000    
                CONSTANT CONCENTRATION =   0.000000                    CONSTANT CONCENTRATION =   0.000000    
                             MASS GAIN =   0.000000                                 MASS GAIN =   0.000000    
                                         -------------------                                    --------------
                              TOTAL IN =   5352.374                                  TOTAL IN =   24.25444    

                   STREAM ACCUMULATION =   1924.768                       STREAM ACCUMULATION =  0.3287476E-01
                        STREAM OUTFLOW =   3427.619                            STREAM OUTFLOW =   24.22157    
                          STREAM TO GW =   0.000000                              STREAM TO GW =   0.000000    
                CONSTANT CONCENTRATION =   0.000000                    CONSTANT CONCENTRATION =   0.000000    
                           EVAPORATION =   0.000000                               EVAPORATION =   0.000000    
                             MASS LOSS =   0.000000                                 MASS LOSS =   0.000000    
                                         -------------------                                    --------------
                             TOTAL OUT =   5352.387                                 TOTAL OUT =   24.25444    

                        NET (IN - OUT) = -0.1367188E-01                        NET (IN - OUT) = -0.3814697E-05
                 DISCREPANCY (PERCENT) = -0.2554354E-03                 DISCREPANCY (PERCENT) = -0.1572783E-04
                                              FLOW ERR (QIN-QOUT-DV) = -0.9536743E-06 [L3/T]




 >>>>>>>>>>>>>>>>>>>>>>>>>>>>>>>>>>>>>>>>>>>>>>>>>>>>>>>FOR COMPONENT NO. 01<<<<<<<<<<<<<<<<<<<<<<<<<<<<<<<<<<<<<<<<<<<<<<<<<<<<<<<


                                            -------------------------------------------
                                                      TRANSPORT STEP NO.   83
                                            -------------------------------------------

 TOTAL ELAPSED TIME SINCE BEGINNING OF SIMULATION =   56340.00    D   
 .....................................................................

                     CUMULATIVE MASS BUDGETS AT END OF TRANSPORT STEP   83, TIME STEP    1, STRESS PERIOD    3
                     -----------------------------------------------------------------------------------------

                                                             IN                           OUT
                                                      ----------------             ----------------
                               CONSTANT CONCENTRATION:    0.000000                    0.000000    
                                        CONSTANT HEAD:    703.2518                   -390.5560    
                                               STREAM:    0.000000                   -312.7000    
                               MASS STOR (FLOW MODEL):   0.5161509E-02              -0.6986623E-07
                                MASS STORAGE (SOLUTE):    0.000000                    0.000000    
                            ---------------------------------------------------------------------------
                                              [TOTAL]:    703.2570     KG            -703.2560     KG  

                                                          NET (IN - OUT):   0.9765625E-03
                                                   DISCREPANCY (PERCENT):   0.1388629E-03
     2 CALLS TO GCG PACKAGE FOR TRANSPORT TIME STEP    84 IN FLOW TIME STEP     1 STRESS PERIOD     3
      2 TOTAL ITERATIONS
  MAXIMUM CONCENTRATION CHANGES FOR EACH ITERATION:
  MAX. CHANGE LAYER,ROW,COL MAX. CHANGE LAYER,ROW,COL MAX. CHANGE LAYER,ROW,COL MAX. CHANGE LAYER,ROW,COL MAX. CHANGE LAYER,ROW,COL
 ------------------------------------------------------------------------------------------------------------------------------------
    0.000     (  1,  1,  1)   0.000     (  1,  1,  1)


                     STREAM MASS BUDGETS AT END OF TRANSPORT STEP   84, TIME STEP    1, STRESS PERIOD    3 FOR COMPONENT   1
                     -------------------------------------------------------------------------------------------------------

                                         CUMULATIVE MASS [M]                                     MASS FOR THIS TIME STEP [M]
                                         -------------------                                    --------------
                      STREAM DEPLETION =   1409.359                          STREAM DEPLETION =   14.90230    
                      INFLOW TO STREAM =   3653.542                          INFLOW TO STREAM =   8.325000    
                          GW TO STREAM =   313.6990                              GW TO STREAM =  0.9990391    
                         PRECIPITATION =   0.000000                             PRECIPITATION =   0.000000    
                                RUNOFF =   0.000000                                    RUNOFF =   0.000000    
                CONSTANT CONCENTRATION =   0.000000                    CONSTANT CONCENTRATION =   0.000000    
                             MASS GAIN =   0.000000                                 MASS GAIN =   0.000000    
                                         -------------------                                    --------------
                              TOTAL IN =   5376.600                                  TOTAL IN =   24.22634    

                   STREAM ACCUMULATION =   1924.772                       STREAM ACCUMULATION =  0.3154465E-02
                        STREAM OUTFLOW =   3451.842                            STREAM OUTFLOW =   24.22319    
                          STREAM TO GW =   0.000000                              STREAM TO GW =   0.000000    
                CONSTANT CONCENTRATION =   0.000000                    CONSTANT CONCENTRATION =   0.000000    
                           EVAPORATION =   0.000000                               EVAPORATION =   0.000000    
                             MASS LOSS =   0.000000                                 MASS LOSS =   0.000000    
                                         -------------------                                    --------------
                             TOTAL OUT =   5376.614                                 TOTAL OUT =   24.22635    

                        NET (IN - OUT) = -0.1416016E-01                        NET (IN - OUT) = -0.3814697E-05
                 DISCREPANCY (PERCENT) = -0.2633661E-03                 DISCREPANCY (PERCENT) = -0.1574607E-04
                                              FLOW ERR (QIN-QOUT-DV) = -0.9536743E-06 [L3/T]




 >>>>>>>>>>>>>>>>>>>>>>>>>>>>>>>>>>>>>>>>>>>>>>>>>>>>>>>FOR COMPONENT NO. 01<<<<<<<<<<<<<<<<<<<<<<<<<<<<<<<<<<<<<<<<<<<<<<<<<<<<<<<


                                            -------------------------------------------
                                                      TRANSPORT STEP NO.   84
                                            -------------------------------------------

 TOTAL ELAPSED TIME SINCE BEGINNING OF SIMULATION =   56520.00    D   
 .....................................................................

                     CUMULATIVE MASS BUDGETS AT END OF TRANSPORT STEP   84, TIME STEP    1, STRESS PERIOD    3
                     -----------------------------------------------------------------------------------------

                                                             IN                           OUT
                                                      ----------------             ----------------
                               CONSTANT CONCENTRATION:    0.000000                    0.000000    
                                        CONSTANT HEAD:    705.4986                   -391.8038    
                                               STREAM:    0.000000                   -313.6990    
                               MASS STOR (FLOW MODEL):   0.5161509E-02              -0.6986623E-07
                                MASS STORAGE (SOLUTE):    0.000000                    0.000000    
                            ---------------------------------------------------------------------------
                                              [TOTAL]:    705.5038     KG            -705.5028     KG  

                                                          NET (IN - OUT):   0.9765625E-03
                                                   DISCREPANCY (PERCENT):   0.1384207E-03
     2 CALLS TO GCG PACKAGE FOR TRANSPORT TIME STEP    85 IN FLOW TIME STEP     1 STRESS PERIOD     3
      2 TOTAL ITERATIONS
  MAXIMUM CONCENTRATION CHANGES FOR EACH ITERATION:
  MAX. CHANGE LAYER,ROW,COL MAX. CHANGE LAYER,ROW,COL MAX. CHANGE LAYER,ROW,COL MAX. CHANGE LAYER,ROW,COL MAX. CHANGE LAYER,ROW,COL
 ------------------------------------------------------------------------------------------------------------------------------------
    0.000     (  1,  1,  1)   0.000     (  1,  1,  1)


                     STREAM MASS BUDGETS AT END OF TRANSPORT STEP   85, TIME STEP    1, STRESS PERIOD    3 FOR COMPONENT   1
                     -------------------------------------------------------------------------------------------------------

                                         CUMULATIVE MASS [M]                                     MASS FOR THIS TIME STEP [M]
                                         -------------------                                    --------------
                      STREAM DEPLETION =   1424.244                          STREAM DEPLETION =   14.88533    
                      INFLOW TO STREAM =   3661.867                          INFLOW TO STREAM =   8.325000    
                          GW TO STREAM =   314.6981                              GW TO STREAM =  0.9990391    
                         PRECIPITATION =   0.000000                             PRECIPITATION =   0.000000    
                                RUNOFF =   0.000000                                    RUNOFF =   0.000000    
                CONSTANT CONCENTRATION =   0.000000                    CONSTANT CONCENTRATION =   0.000000    
                             MASS GAIN =   0.000000                                 MASS GAIN =   0.000000    
                                         -------------------                                    --------------
                              TOTAL IN =   5400.809                                  TOTAL IN =   24.20937    

                   STREAM ACCUMULATION =   1924.774                       STREAM ACCUMULATION =  0.2531316E-02
                        STREAM OUTFLOW =   3476.049                            STREAM OUTFLOW =   24.20684    
                          STREAM TO GW =   0.000000                              STREAM TO GW =   0.000000    
                CONSTANT CONCENTRATION =   0.000000                    CONSTANT CONCENTRATION =   0.000000    
                           EVAPORATION =   0.000000                               EVAPORATION =   0.000000    
                             MASS LOSS =   0.000000                                 MASS LOSS =   0.000000    
                                         -------------------                                    --------------
                             TOTAL OUT =   5400.823                                 TOTAL OUT =   24.20937    

                        NET (IN - OUT) = -0.1416016E-01                        NET (IN - OUT) = -0.5722046E-05
                 DISCREPANCY (PERCENT) = -0.2621855E-03                 DISCREPANCY (PERCENT) = -0.2363567E-04
                                              FLOW ERR (QIN-QOUT-DV) = -0.9536743E-06 [L3/T]




 >>>>>>>>>>>>>>>>>>>>>>>>>>>>>>>>>>>>>>>>>>>>>>>>>>>>>>>FOR COMPONENT NO. 01<<<<<<<<<<<<<<<<<<<<<<<<<<<<<<<<<<<<<<<<<<<<<<<<<<<<<<<


                                            -------------------------------------------
                                                      TRANSPORT STEP NO.   85
                                            -------------------------------------------

 TOTAL ELAPSED TIME SINCE BEGINNING OF SIMULATION =   56700.00    D   
 .....................................................................

                     CUMULATIVE MASS BUDGETS AT END OF TRANSPORT STEP   85, TIME STEP    1, STRESS PERIOD    3
                     -----------------------------------------------------------------------------------------

                                                             IN                           OUT
                                                      ----------------             ----------------
                               CONSTANT CONCENTRATION:    0.000000                    0.000000    
                                        CONSTANT HEAD:    707.7454                   -393.0515    
                                               STREAM:    0.000000                   -314.6981    
                               MASS STOR (FLOW MODEL):   0.5161509E-02              -0.6986623E-07
                                MASS STORAGE (SOLUTE):    0.000000                    0.000000    
                            ---------------------------------------------------------------------------
                                              [TOTAL]:    707.7506     KG            -707.7496     KG  

                                                          NET (IN - OUT):   0.9765625E-03
                                                   DISCREPANCY (PERCENT):   0.1379813E-03
     2 CALLS TO GCG PACKAGE FOR TRANSPORT TIME STEP    86 IN FLOW TIME STEP     1 STRESS PERIOD     3
      2 TOTAL ITERATIONS
  MAXIMUM CONCENTRATION CHANGES FOR EACH ITERATION:
  MAX. CHANGE LAYER,ROW,COL MAX. CHANGE LAYER,ROW,COL MAX. CHANGE LAYER,ROW,COL MAX. CHANGE LAYER,ROW,COL MAX. CHANGE LAYER,ROW,COL
 ------------------------------------------------------------------------------------------------------------------------------------
    0.000     (  1,  1,  1)   0.000     (  1,  1,  1)


                     STREAM MASS BUDGETS AT END OF TRANSPORT STEP   86, TIME STEP    1, STRESS PERIOD    3 FOR COMPONENT   1
                     -------------------------------------------------------------------------------------------------------

                                         CUMULATIVE MASS [M]                                     MASS FOR THIS TIME STEP [M]
                                         -------------------                                    --------------
                      STREAM DEPLETION =   1439.095                          STREAM DEPLETION =   14.85066    
                      INFLOW TO STREAM =   3670.192                          INFLOW TO STREAM =   8.325000    
                          GW TO STREAM =   315.6971                              GW TO STREAM =  0.9990391    
                         PRECIPITATION =   0.000000                             PRECIPITATION =   0.000000    
                                RUNOFF =   0.000000                                    RUNOFF =   0.000000    
                CONSTANT CONCENTRATION =   0.000000                    CONSTANT CONCENTRATION =   0.000000    
                             MASS GAIN =   0.000000                                 MASS GAIN =   0.000000    
                                         -------------------                                    --------------
                              TOTAL IN =   5424.984                                  TOTAL IN =   24.17470    

                   STREAM ACCUMULATION =   1924.777                       STREAM ACCUMULATION =  0.2418925E-02
                        STREAM OUTFLOW =   3500.221                            STREAM OUTFLOW =   24.17229    
                          STREAM TO GW =   0.000000                              STREAM TO GW =   0.000000    
                CONSTANT CONCENTRATION =   0.000000                    CONSTANT CONCENTRATION =   0.000000    
                           EVAPORATION =   0.000000                               EVAPORATION =   0.000000    
                             MASS LOSS =   0.000000                                 MASS LOSS =   0.000000    
                                         -------------------                                    --------------
                             TOTAL OUT =   5424.998                                 TOTAL OUT =   24.17471    

                        NET (IN - OUT) = -0.1416016E-01                        NET (IN - OUT) = -0.5722046E-05
                 DISCREPANCY (PERCENT) = -0.2610171E-03                 DISCREPANCY (PERCENT) = -0.2366956E-04
                                              FLOW ERR (QIN-QOUT-DV) = -0.9536743E-06 [L3/T]




 >>>>>>>>>>>>>>>>>>>>>>>>>>>>>>>>>>>>>>>>>>>>>>>>>>>>>>>FOR COMPONENT NO. 01<<<<<<<<<<<<<<<<<<<<<<<<<<<<<<<<<<<<<<<<<<<<<<<<<<<<<<<


                                            -------------------------------------------
                                                      TRANSPORT STEP NO.   86
                                            -------------------------------------------

 TOTAL ELAPSED TIME SINCE BEGINNING OF SIMULATION =   56880.00    D   
 .....................................................................

                     CUMULATIVE MASS BUDGETS AT END OF TRANSPORT STEP   86, TIME STEP    1, STRESS PERIOD    3
                     -----------------------------------------------------------------------------------------

                                                             IN                           OUT
                                                      ----------------             ----------------
                               CONSTANT CONCENTRATION:    0.000000                    0.000000    
                                        CONSTANT HEAD:    709.9922                   -394.2993    
                                               STREAM:    0.000000                   -315.6971    
                               MASS STOR (FLOW MODEL):   0.5161509E-02              -0.6986623E-07
                                MASS STORAGE (SOLUTE):    0.000000                    0.000000    
                            ---------------------------------------------------------------------------
                                              [TOTAL]:    709.9974     KG            -709.9965     KG  

                                                          NET (IN - OUT):   0.9765625E-03
                                                   DISCREPANCY (PERCENT):   0.1375446E-03
     2 CALLS TO GCG PACKAGE FOR TRANSPORT TIME STEP    87 IN FLOW TIME STEP     1 STRESS PERIOD     3
      2 TOTAL ITERATIONS
  MAXIMUM CONCENTRATION CHANGES FOR EACH ITERATION:
  MAX. CHANGE LAYER,ROW,COL MAX. CHANGE LAYER,ROW,COL MAX. CHANGE LAYER,ROW,COL MAX. CHANGE LAYER,ROW,COL MAX. CHANGE LAYER,ROW,COL
 ------------------------------------------------------------------------------------------------------------------------------------
    0.000     (  1,  1,  1)   0.000     (  1,  1,  1)


                     STREAM MASS BUDGETS AT END OF TRANSPORT STEP   87, TIME STEP    1, STRESS PERIOD    3 FOR COMPONENT   1
                     -------------------------------------------------------------------------------------------------------

                                         CUMULATIVE MASS [M]                                     MASS FOR THIS TIME STEP [M]
                                         -------------------                                    --------------
                      STREAM DEPLETION =   1453.893                          STREAM DEPLETION =   14.79765    
                      INFLOW TO STREAM =   3678.517                          INFLOW TO STREAM =   8.325000    
                          GW TO STREAM =   316.6962                              GW TO STREAM =  0.9990391    
                         PRECIPITATION =   0.000000                             PRECIPITATION =   0.000000    
                                RUNOFF =   0.000000                                    RUNOFF =   0.000000    
                CONSTANT CONCENTRATION =   0.000000                    CONSTANT CONCENTRATION =   0.000000    
                             MASS GAIN =   0.000000                                 MASS GAIN =   0.000000    
                                         -------------------                                    --------------
                              TOTAL IN =   5449.105                                  TOTAL IN =   24.12169    

                   STREAM ACCUMULATION =   1924.779                       STREAM ACCUMULATION =  0.2311227E-02
                        STREAM OUTFLOW =   3524.341                            STREAM OUTFLOW =   24.11938    
                          STREAM TO GW =   0.000000                              STREAM TO GW =   0.000000    
                CONSTANT CONCENTRATION =   0.000000                    CONSTANT CONCENTRATION =   0.000000    
                           EVAPORATION =   0.000000                               EVAPORATION =   0.000000    
                             MASS LOSS =   0.000000                                 MASS LOSS =   0.000000    
                                         -------------------                                    --------------
                             TOTAL OUT =   5449.120                                 TOTAL OUT =   24.12169    

                        NET (IN - OUT) = -0.1416016E-01                        NET (IN - OUT) = -0.3814697E-05
                 DISCREPANCY (PERCENT) = -0.2598617E-03                 DISCREPANCY (PERCENT) = -0.1581439E-04
                                              FLOW ERR (QIN-QOUT-DV) = -0.9536743E-06 [L3/T]




 >>>>>>>>>>>>>>>>>>>>>>>>>>>>>>>>>>>>>>>>>>>>>>>>>>>>>>>FOR COMPONENT NO. 01<<<<<<<<<<<<<<<<<<<<<<<<<<<<<<<<<<<<<<<<<<<<<<<<<<<<<<<


                                            -------------------------------------------
                                                      TRANSPORT STEP NO.   87
                                            -------------------------------------------

 TOTAL ELAPSED TIME SINCE BEGINNING OF SIMULATION =   57060.00    D   
 .....................................................................

                     CUMULATIVE MASS BUDGETS AT END OF TRANSPORT STEP   87, TIME STEP    1, STRESS PERIOD    3
                     -----------------------------------------------------------------------------------------

                                                             IN                           OUT
                                                      ----------------             ----------------
                               CONSTANT CONCENTRATION:    0.000000                    0.000000    
                                        CONSTANT HEAD:    712.2391                   -395.5471    
                                               STREAM:    0.000000                   -316.6962    
                               MASS STOR (FLOW MODEL):   0.5161509E-02              -0.6986623E-07
                                MASS STORAGE (SOLUTE):    0.000000                    0.000000    
                            ---------------------------------------------------------------------------
                                              [TOTAL]:    712.2443     KG            -712.2433     KG  

                                                          NET (IN - OUT):   0.9765625E-03
                                                   DISCREPANCY (PERCENT):   0.1371107E-03
     2 CALLS TO GCG PACKAGE FOR TRANSPORT TIME STEP    88 IN FLOW TIME STEP     1 STRESS PERIOD     3
      2 TOTAL ITERATIONS
  MAXIMUM CONCENTRATION CHANGES FOR EACH ITERATION:
  MAX. CHANGE LAYER,ROW,COL MAX. CHANGE LAYER,ROW,COL MAX. CHANGE LAYER,ROW,COL MAX. CHANGE LAYER,ROW,COL MAX. CHANGE LAYER,ROW,COL
 ------------------------------------------------------------------------------------------------------------------------------------
    0.000     (  1,  1,  1)   0.000     (  1,  1,  1)


                     STREAM MASS BUDGETS AT END OF TRANSPORT STEP   88, TIME STEP    1, STRESS PERIOD    3 FOR COMPONENT   1
                     -------------------------------------------------------------------------------------------------------

                                         CUMULATIVE MASS [M]                                     MASS FOR THIS TIME STEP [M]
                                         -------------------                                    --------------
                      STREAM DEPLETION =   1468.619                          STREAM DEPLETION =   14.72621    
                      INFLOW TO STREAM =   3686.842                          INFLOW TO STREAM =   8.325000    
                          GW TO STREAM =   317.6953                              GW TO STREAM =  0.9990391    
                         PRECIPITATION =   0.000000                             PRECIPITATION =   0.000000    
                                RUNOFF =   0.000000                                    RUNOFF =   0.000000    
                CONSTANT CONCENTRATION =   0.000000                    CONSTANT CONCENTRATION =   0.000000    
                             MASS GAIN =   0.000000                                 MASS GAIN =   0.000000    
                                         -------------------                                    --------------
                              TOTAL IN =   5473.156                                  TOTAL IN =   24.05025    

                   STREAM ACCUMULATION =   1924.781                       STREAM ACCUMULATION =  0.2208377E-02
                        STREAM OUTFLOW =   3548.389                            STREAM OUTFLOW =   24.04804    
                          STREAM TO GW =   0.000000                              STREAM TO GW =   0.000000    
                CONSTANT CONCENTRATION =   0.000000                    CONSTANT CONCENTRATION =   0.000000    
                           EVAPORATION =   0.000000                               EVAPORATION =   0.000000    
                             MASS LOSS =   0.000000                                 MASS LOSS =   0.000000    
                                         -------------------                                    --------------
                             TOTAL OUT =   5473.170                                 TOTAL OUT =   24.05025    

                        NET (IN - OUT) = -0.1416016E-01                        NET (IN - OUT) =  0.1907349E-05
                 DISCREPANCY (PERCENT) = -0.2587198E-03                 DISCREPANCY (PERCENT) =  0.7930682E-05
                                              FLOW ERR (QIN-QOUT-DV) = -0.9536743E-06 [L3/T]




 >>>>>>>>>>>>>>>>>>>>>>>>>>>>>>>>>>>>>>>>>>>>>>>>>>>>>>>FOR COMPONENT NO. 01<<<<<<<<<<<<<<<<<<<<<<<<<<<<<<<<<<<<<<<<<<<<<<<<<<<<<<<


                                            -------------------------------------------
                                                      TRANSPORT STEP NO.   88
                                            -------------------------------------------

 TOTAL ELAPSED TIME SINCE BEGINNING OF SIMULATION =   57240.00    D   
 .....................................................................

                     CUMULATIVE MASS BUDGETS AT END OF TRANSPORT STEP   88, TIME STEP    1, STRESS PERIOD    3
                     -----------------------------------------------------------------------------------------

                                                             IN                           OUT
                                                      ----------------             ----------------
                               CONSTANT CONCENTRATION:    0.000000                    0.000000    
                                        CONSTANT HEAD:    714.4859                   -396.7949    
                                               STREAM:    0.000000                   -317.6953    
                               MASS STOR (FLOW MODEL):   0.5161509E-02              -0.6986623E-07
                                MASS STORAGE (SOLUTE):    0.000000                    0.000000    
                            ---------------------------------------------------------------------------
                                              [TOTAL]:    714.4911     KG            -714.4901     KG  

                                                          NET (IN - OUT):   0.9765625E-03
                                                   DISCREPANCY (PERCENT):   0.1366795E-03
     2 CALLS TO GCG PACKAGE FOR TRANSPORT TIME STEP    89 IN FLOW TIME STEP     1 STRESS PERIOD     3
      2 TOTAL ITERATIONS
  MAXIMUM CONCENTRATION CHANGES FOR EACH ITERATION:
  MAX. CHANGE LAYER,ROW,COL MAX. CHANGE LAYER,ROW,COL MAX. CHANGE LAYER,ROW,COL MAX. CHANGE LAYER,ROW,COL MAX. CHANGE LAYER,ROW,COL
 ------------------------------------------------------------------------------------------------------------------------------------
    0.000     (  1,  1,  1)   0.000     (  1,  1,  1)


                     STREAM MASS BUDGETS AT END OF TRANSPORT STEP   89, TIME STEP    1, STRESS PERIOD    3 FOR COMPONENT   1
                     -------------------------------------------------------------------------------------------------------

                                         CUMULATIVE MASS [M]                                     MASS FOR THIS TIME STEP [M]
                                         -------------------                                    --------------
                      STREAM DEPLETION =   1483.255                          STREAM DEPLETION =   14.63636    
                      INFLOW TO STREAM =   3695.167                          INFLOW TO STREAM =   8.325000    
                          GW TO STREAM =   318.6943                              GW TO STREAM =  0.9990391    
                         PRECIPITATION =   0.000000                             PRECIPITATION =   0.000000    
                                RUNOFF =   0.000000                                    RUNOFF =   0.000000    
                CONSTANT CONCENTRATION =   0.000000                    CONSTANT CONCENTRATION =   0.000000    
                             MASS GAIN =   0.000000                                 MASS GAIN =   0.000000    
                                         -------------------                                    --------------
                              TOTAL IN =   5497.116                                  TOTAL IN =   23.96039    

                   STREAM ACCUMULATION =   1924.783                       STREAM ACCUMULATION =  0.2110161E-02
                        STREAM OUTFLOW =   3572.347                            STREAM OUTFLOW =   23.95828    
                          STREAM TO GW =   0.000000                              STREAM TO GW =   0.000000    
                CONSTANT CONCENTRATION =   0.000000                    CONSTANT CONCENTRATION =   0.000000    
                           EVAPORATION =   0.000000                               EVAPORATION =   0.000000    
                             MASS LOSS =   0.000000                                 MASS LOSS =   0.000000    
                                         -------------------                                    --------------
                             TOTAL OUT =   5497.130                                 TOTAL OUT =   23.96039    

                        NET (IN - OUT) = -0.1367188E-01                        NET (IN - OUT) =   0.000000    
                 DISCREPANCY (PERCENT) = -0.2487096E-03                 DISCREPANCY (PERCENT) =   0.000000    
                                              FLOW ERR (QIN-QOUT-DV) = -0.9536743E-06 [L3/T]




 >>>>>>>>>>>>>>>>>>>>>>>>>>>>>>>>>>>>>>>>>>>>>>>>>>>>>>>FOR COMPONENT NO. 01<<<<<<<<<<<<<<<<<<<<<<<<<<<<<<<<<<<<<<<<<<<<<<<<<<<<<<<


                                            -------------------------------------------
                                                      TRANSPORT STEP NO.   89
                                            -------------------------------------------

 TOTAL ELAPSED TIME SINCE BEGINNING OF SIMULATION =   57420.00    D   
 .....................................................................

                     CUMULATIVE MASS BUDGETS AT END OF TRANSPORT STEP   89, TIME STEP    1, STRESS PERIOD    3
                     -----------------------------------------------------------------------------------------

                                                             IN                           OUT
                                                      ----------------             ----------------
                               CONSTANT CONCENTRATION:    0.000000                    0.000000    
                                        CONSTANT HEAD:    716.7327                   -398.0426    
                                               STREAM:    0.000000                   -318.6943    
                               MASS STOR (FLOW MODEL):   0.5161509E-02              -0.6986623E-07
                                MASS STORAGE (SOLUTE):    0.000000                    0.000000    
                            ---------------------------------------------------------------------------
                                              [TOTAL]:    716.7379     KG            -716.7369     KG  

                                                          NET (IN - OUT):   0.9765625E-03
                                                   DISCREPANCY (PERCENT):   0.1362511E-03
     2 CALLS TO GCG PACKAGE FOR TRANSPORT TIME STEP    90 IN FLOW TIME STEP     1 STRESS PERIOD     3
      2 TOTAL ITERATIONS
  MAXIMUM CONCENTRATION CHANGES FOR EACH ITERATION:
  MAX. CHANGE LAYER,ROW,COL MAX. CHANGE LAYER,ROW,COL MAX. CHANGE LAYER,ROW,COL MAX. CHANGE LAYER,ROW,COL MAX. CHANGE LAYER,ROW,COL
 ------------------------------------------------------------------------------------------------------------------------------------
    0.000     (  1,  1,  1)   0.000     (  1,  1,  1)


                     STREAM MASS BUDGETS AT END OF TRANSPORT STEP   90, TIME STEP    1, STRESS PERIOD    3 FOR COMPONENT   1
                     -------------------------------------------------------------------------------------------------------

                                         CUMULATIVE MASS [M]                                     MASS FOR THIS TIME STEP [M]
                                         -------------------                                    --------------
                      STREAM DEPLETION =   1497.783                          STREAM DEPLETION =   14.52820    
                      INFLOW TO STREAM =   3703.491                          INFLOW TO STREAM =   8.325000    
                          GW TO STREAM =   319.6934                              GW TO STREAM =  0.9990391    
                         PRECIPITATION =   0.000000                             PRECIPITATION =   0.000000    
                                RUNOFF =   0.000000                                    RUNOFF =   0.000000    
                CONSTANT CONCENTRATION =   0.000000                    CONSTANT CONCENTRATION =   0.000000    
                             MASS GAIN =   0.000000                                 MASS GAIN =   0.000000    
                                         -------------------                                    --------------
                              TOTAL IN =   5520.968                                  TOTAL IN =   23.85224    

                   STREAM ACCUMULATION =   1924.785                       STREAM ACCUMULATION =  0.2016066E-02
                        STREAM OUTFLOW =   3596.197                            STREAM OUTFLOW =   23.85023    
                          STREAM TO GW =   0.000000                              STREAM TO GW =   0.000000    
                CONSTANT CONCENTRATION =   0.000000                    CONSTANT CONCENTRATION =   0.000000    
                           EVAPORATION =   0.000000                               EVAPORATION =   0.000000    
                             MASS LOSS =   0.000000                                 MASS LOSS =   0.000000    
                                         -------------------                                    --------------
                             TOTAL OUT =   5520.982                                 TOTAL OUT =   23.85225    

                        NET (IN - OUT) = -0.1416016E-01                        NET (IN - OUT) = -0.5722046E-05
                 DISCREPANCY (PERCENT) = -0.2564793E-03                 DISCREPANCY (PERCENT) = -0.2398955E-04
                                              FLOW ERR (QIN-QOUT-DV) = -0.9536743E-06 [L3/T]




 >>>>>>>>>>>>>>>>>>>>>>>>>>>>>>>>>>>>>>>>>>>>>>>>>>>>>>>FOR COMPONENT NO. 01<<<<<<<<<<<<<<<<<<<<<<<<<<<<<<<<<<<<<<<<<<<<<<<<<<<<<<<


                                            -------------------------------------------
                                                      TRANSPORT STEP NO.   90
                                            -------------------------------------------

 TOTAL ELAPSED TIME SINCE BEGINNING OF SIMULATION =   57600.00    D   
 .....................................................................

                     CUMULATIVE MASS BUDGETS AT END OF TRANSPORT STEP   90, TIME STEP    1, STRESS PERIOD    3
                     -----------------------------------------------------------------------------------------

                                                             IN                           OUT
                                                      ----------------             ----------------
                               CONSTANT CONCENTRATION:    0.000000                    0.000000    
                                        CONSTANT HEAD:    718.9796                   -399.2904    
                                               STREAM:    0.000000                   -319.6934    
                               MASS STOR (FLOW MODEL):   0.5161509E-02              -0.6986623E-07
                                MASS STORAGE (SOLUTE):    0.000000                    0.000000    
                            ---------------------------------------------------------------------------
                                              [TOTAL]:    718.9847     KG            -718.9838     KG  

                                                          NET (IN - OUT):   0.9765625E-03
                                                   DISCREPANCY (PERCENT):   0.1358253E-03
     2 CALLS TO GCG PACKAGE FOR TRANSPORT TIME STEP    91 IN FLOW TIME STEP     1 STRESS PERIOD     3
      2 TOTAL ITERATIONS
  MAXIMUM CONCENTRATION CHANGES FOR EACH ITERATION:
  MAX. CHANGE LAYER,ROW,COL MAX. CHANGE LAYER,ROW,COL MAX. CHANGE LAYER,ROW,COL MAX. CHANGE LAYER,ROW,COL MAX. CHANGE LAYER,ROW,COL
 ------------------------------------------------------------------------------------------------------------------------------------
    0.000     (  1,  1,  1)   0.000     (  1,  1,  1)


                     STREAM MASS BUDGETS AT END OF TRANSPORT STEP   91, TIME STEP    1, STRESS PERIOD    3 FOR COMPONENT   1
                     -------------------------------------------------------------------------------------------------------

                                         CUMULATIVE MASS [M]                                     MASS FOR THIS TIME STEP [M]
                                         -------------------                                    --------------
                      STREAM DEPLETION =   1512.185                          STREAM DEPLETION =   14.40198    
                      INFLOW TO STREAM =   3711.816                          INFLOW TO STREAM =   8.325000    
                          GW TO STREAM =   320.6924                              GW TO STREAM =  0.9990391    
                         PRECIPITATION =   0.000000                             PRECIPITATION =   0.000000    
                                RUNOFF =   0.000000                                    RUNOFF =   0.000000    
                CONSTANT CONCENTRATION =   0.000000                    CONSTANT CONCENTRATION =   0.000000    
                             MASS GAIN =   0.000000                                 MASS GAIN =   0.000000    
                                         -------------------                                    --------------
                              TOTAL IN =   5544.694                                  TOTAL IN =   23.72601    

                   STREAM ACCUMULATION =   1924.787                       STREAM ACCUMULATION =  0.1925940E-02
                        STREAM OUTFLOW =   3619.921                            STREAM OUTFLOW =   23.72409    
                          STREAM TO GW =   0.000000                              STREAM TO GW =   0.000000    
                CONSTANT CONCENTRATION =   0.000000                    CONSTANT CONCENTRATION =   0.000000    
                           EVAPORATION =   0.000000                               EVAPORATION =   0.000000    
                             MASS LOSS =   0.000000                                 MASS LOSS =   0.000000    
                                         -------------------                                    --------------
                             TOTAL OUT =   5544.708                                 TOTAL OUT =   23.72602    

                        NET (IN - OUT) = -0.1416016E-01                        NET (IN - OUT) = -0.3814697E-05
                 DISCREPANCY (PERCENT) = -0.2553818E-03                 DISCREPANCY (PERCENT) = -0.1607812E-04
                                              FLOW ERR (QIN-QOUT-DV) = -0.9536743E-06 [L3/T]




 >>>>>>>>>>>>>>>>>>>>>>>>>>>>>>>>>>>>>>>>>>>>>>>>>>>>>>>FOR COMPONENT NO. 01<<<<<<<<<<<<<<<<<<<<<<<<<<<<<<<<<<<<<<<<<<<<<<<<<<<<<<<


                                            -------------------------------------------
                                                      TRANSPORT STEP NO.   91
                                            -------------------------------------------

 TOTAL ELAPSED TIME SINCE BEGINNING OF SIMULATION =   57780.00    D   
 .....................................................................

                     CUMULATIVE MASS BUDGETS AT END OF TRANSPORT STEP   91, TIME STEP    1, STRESS PERIOD    3
                     -----------------------------------------------------------------------------------------

                                                             IN                           OUT
                                                      ----------------             ----------------
                               CONSTANT CONCENTRATION:    0.000000                    0.000000    
                                        CONSTANT HEAD:    721.2264                   -400.5382    
                                               STREAM:    0.000000                   -320.6924    
                               MASS STOR (FLOW MODEL):   0.5161509E-02              -0.6986623E-07
                                MASS STORAGE (SOLUTE):    0.000000                    0.000000    
                            ---------------------------------------------------------------------------
                                              [TOTAL]:    721.2316     KG            -721.2306     KG  

                                                          NET (IN - OUT):   0.9765625E-03
                                                   DISCREPANCY (PERCENT):   0.1354022E-03
     2 CALLS TO GCG PACKAGE FOR TRANSPORT TIME STEP    92 IN FLOW TIME STEP     1 STRESS PERIOD     3
      2 TOTAL ITERATIONS
  MAXIMUM CONCENTRATION CHANGES FOR EACH ITERATION:
  MAX. CHANGE LAYER,ROW,COL MAX. CHANGE LAYER,ROW,COL MAX. CHANGE LAYER,ROW,COL MAX. CHANGE LAYER,ROW,COL MAX. CHANGE LAYER,ROW,COL
 ------------------------------------------------------------------------------------------------------------------------------------
    0.000     (  1,  1,  1)   0.000     (  1,  1,  1)


                     STREAM MASS BUDGETS AT END OF TRANSPORT STEP   92, TIME STEP    1, STRESS PERIOD    3 FOR COMPONENT   1
                     -------------------------------------------------------------------------------------------------------

                                         CUMULATIVE MASS [M]                                     MASS FOR THIS TIME STEP [M]
                                         -------------------                                    --------------
                      STREAM DEPLETION =   1526.443                          STREAM DEPLETION =   14.25796    
                      INFLOW TO STREAM =   3720.141                          INFLOW TO STREAM =   8.325000    
                          GW TO STREAM =   321.6915                              GW TO STREAM =  0.9990391    
                         PRECIPITATION =   0.000000                             PRECIPITATION =   0.000000    
                                RUNOFF =   0.000000                                    RUNOFF =   0.000000    
                CONSTANT CONCENTRATION =   0.000000                    CONSTANT CONCENTRATION =   0.000000    
                             MASS GAIN =   0.000000                                 MASS GAIN =   0.000000    
                                         -------------------                                    --------------
                              TOTAL IN =   5568.276                                  TOTAL IN =   23.58200    

                   STREAM ACCUMULATION =   1924.789                       STREAM ACCUMULATION =  0.1839637E-02
                        STREAM OUTFLOW =   3643.501                            STREAM OUTFLOW =   23.58016    
                          STREAM TO GW =   0.000000                              STREAM TO GW =   0.000000    
                CONSTANT CONCENTRATION =   0.000000                    CONSTANT CONCENTRATION =   0.000000    
                           EVAPORATION =   0.000000                               EVAPORATION =   0.000000    
                             MASS LOSS =   0.000000                                 MASS LOSS =   0.000000    
                                         -------------------                                    --------------
                             TOTAL OUT =   5568.291                                 TOTAL OUT =   23.58200    

                        NET (IN - OUT) = -0.1416016E-01                        NET (IN - OUT) = -0.3814697E-05
                 DISCREPANCY (PERCENT) = -0.2543002E-03                 DISCREPANCY (PERCENT) = -0.1617631E-04
                                              FLOW ERR (QIN-QOUT-DV) = -0.9536743E-06 [L3/T]




 >>>>>>>>>>>>>>>>>>>>>>>>>>>>>>>>>>>>>>>>>>>>>>>>>>>>>>>FOR COMPONENT NO. 01<<<<<<<<<<<<<<<<<<<<<<<<<<<<<<<<<<<<<<<<<<<<<<<<<<<<<<<


                                            -------------------------------------------
                                                      TRANSPORT STEP NO.   92
                                            -------------------------------------------

 TOTAL ELAPSED TIME SINCE BEGINNING OF SIMULATION =   57960.00    D   
 .....................................................................

                     CUMULATIVE MASS BUDGETS AT END OF TRANSPORT STEP   92, TIME STEP    1, STRESS PERIOD    3
                     -----------------------------------------------------------------------------------------

                                                             IN                           OUT
                                                      ----------------             ----------------
                               CONSTANT CONCENTRATION:    0.000000                    0.000000    
                                        CONSTANT HEAD:    723.4732                   -401.7859    
                                               STREAM:    0.000000                   -321.6915    
                               MASS STOR (FLOW MODEL):   0.5161509E-02              -0.6986623E-07
                                MASS STORAGE (SOLUTE):    0.000000                    0.000000    
                            ---------------------------------------------------------------------------
                                              [TOTAL]:    723.4784     KG            -723.4774     KG  

                                                          NET (IN - OUT):   0.9765625E-03
                                                   DISCREPANCY (PERCENT):   0.1349817E-03
     2 CALLS TO GCG PACKAGE FOR TRANSPORT TIME STEP    93 IN FLOW TIME STEP     1 STRESS PERIOD     3
      2 TOTAL ITERATIONS
  MAXIMUM CONCENTRATION CHANGES FOR EACH ITERATION:
  MAX. CHANGE LAYER,ROW,COL MAX. CHANGE LAYER,ROW,COL MAX. CHANGE LAYER,ROW,COL MAX. CHANGE LAYER,ROW,COL MAX. CHANGE LAYER,ROW,COL
 ------------------------------------------------------------------------------------------------------------------------------------
    0.000     (  1,  1,  1)   0.000     (  1,  1,  1)


                     STREAM MASS BUDGETS AT END OF TRANSPORT STEP   93, TIME STEP    1, STRESS PERIOD    3 FOR COMPONENT   1
                     -------------------------------------------------------------------------------------------------------

                                         CUMULATIVE MASS [M]                                     MASS FOR THIS TIME STEP [M]
                                         -------------------                                    --------------
                      STREAM DEPLETION =   1540.540                          STREAM DEPLETION =   14.09657    
                      INFLOW TO STREAM =   3728.466                          INFLOW TO STREAM =   8.325000    
                          GW TO STREAM =   322.6905                              GW TO STREAM =  0.9990391    
                         PRECIPITATION =   0.000000                             PRECIPITATION =   0.000000    
                                RUNOFF =   0.000000                                    RUNOFF =   0.000000    
                CONSTANT CONCENTRATION =   0.000000                    CONSTANT CONCENTRATION =   0.000000    
                             MASS GAIN =   0.000000                                 MASS GAIN =   0.000000    
                                         -------------------                                    --------------
                              TOTAL IN =   5591.697                                  TOTAL IN =   23.42061    

                   STREAM ACCUMULATION =   1924.791                       STREAM ACCUMULATION =  0.1757012E-02
                        STREAM OUTFLOW =   3666.920                            STREAM OUTFLOW =   23.41886    
                          STREAM TO GW =   0.000000                              STREAM TO GW =   0.000000    
                CONSTANT CONCENTRATION =   0.000000                    CONSTANT CONCENTRATION =   0.000000    
                           EVAPORATION =   0.000000                               EVAPORATION =   0.000000    
                             MASS LOSS =   0.000000                                 MASS LOSS =   0.000000    
                                         -------------------                                    --------------
                             TOTAL OUT =   5591.711                                 TOTAL OUT =   23.42061    

                        NET (IN - OUT) = -0.1416016E-01                        NET (IN - OUT) = -0.3814697E-05
                 DISCREPANCY (PERCENT) = -0.2532351E-03                 DISCREPANCY (PERCENT) = -0.1628778E-04
                                              FLOW ERR (QIN-QOUT-DV) = -0.9536743E-06 [L3/T]




 >>>>>>>>>>>>>>>>>>>>>>>>>>>>>>>>>>>>>>>>>>>>>>>>>>>>>>>FOR COMPONENT NO. 01<<<<<<<<<<<<<<<<<<<<<<<<<<<<<<<<<<<<<<<<<<<<<<<<<<<<<<<


                                            -------------------------------------------
                                                      TRANSPORT STEP NO.   93
                                            -------------------------------------------

 TOTAL ELAPSED TIME SINCE BEGINNING OF SIMULATION =   58140.00    D   
 .....................................................................

                     CUMULATIVE MASS BUDGETS AT END OF TRANSPORT STEP   93, TIME STEP    1, STRESS PERIOD    3
                     -----------------------------------------------------------------------------------------

                                                             IN                           OUT
                                                      ----------------             ----------------
                               CONSTANT CONCENTRATION:    0.000000                    0.000000    
                                        CONSTANT HEAD:    725.7200                   -403.0337    
                                               STREAM:    0.000000                   -322.6905    
                               MASS STOR (FLOW MODEL):   0.5161509E-02              -0.6986623E-07
                                MASS STORAGE (SOLUTE):    0.000000                    0.000000    
                            ---------------------------------------------------------------------------
                                              [TOTAL]:    725.7252     KG            -725.7242     KG  

                                                          NET (IN - OUT):   0.9765625E-03
                                                   DISCREPANCY (PERCENT):   0.1345638E-03
     2 CALLS TO GCG PACKAGE FOR TRANSPORT TIME STEP    94 IN FLOW TIME STEP     1 STRESS PERIOD     3
      2 TOTAL ITERATIONS
  MAXIMUM CONCENTRATION CHANGES FOR EACH ITERATION:
  MAX. CHANGE LAYER,ROW,COL MAX. CHANGE LAYER,ROW,COL MAX. CHANGE LAYER,ROW,COL MAX. CHANGE LAYER,ROW,COL MAX. CHANGE LAYER,ROW,COL
 ------------------------------------------------------------------------------------------------------------------------------------
    0.000     (  1,  1,  1)   0.000     (  1,  1,  1)


                     STREAM MASS BUDGETS AT END OF TRANSPORT STEP   94, TIME STEP    1, STRESS PERIOD    3 FOR COMPONENT   1
                     -------------------------------------------------------------------------------------------------------

                                         CUMULATIVE MASS [M]                                     MASS FOR THIS TIME STEP [M]
                                         -------------------                                    --------------
                      STREAM DEPLETION =   1554.458                          STREAM DEPLETION =   13.91831    
                      INFLOW TO STREAM =   3736.791                          INFLOW TO STREAM =   8.325000    
                          GW TO STREAM =   323.6896                              GW TO STREAM =  0.9990391    
                         PRECIPITATION =   0.000000                             PRECIPITATION =   0.000000    
                                RUNOFF =   0.000000                                    RUNOFF =   0.000000    
                CONSTANT CONCENTRATION =   0.000000                    CONSTANT CONCENTRATION =   0.000000    
                             MASS GAIN =   0.000000                                 MASS GAIN =   0.000000    
                                         -------------------                                    --------------
                              TOTAL IN =   5614.939                                  TOTAL IN =   23.24234    

                   STREAM ACCUMULATION =   1924.792                       STREAM ACCUMULATION =  0.1677947E-02
                        STREAM OUTFLOW =   3690.161                            STREAM OUTFLOW =   23.24067    
                          STREAM TO GW =   0.000000                              STREAM TO GW =   0.000000    
                CONSTANT CONCENTRATION =   0.000000                    CONSTANT CONCENTRATION =   0.000000    
                           EVAPORATION =   0.000000                               EVAPORATION =   0.000000    
                             MASS LOSS =   0.000000                                 MASS LOSS =   0.000000    
                                         -------------------                                    --------------
                             TOTAL OUT =   5614.954                                 TOTAL OUT =   23.24234    

                        NET (IN - OUT) = -0.1464844E-01                        NET (IN - OUT) =   0.000000    
                 DISCREPANCY (PERCENT) = -0.2608830E-03                 DISCREPANCY (PERCENT) =   0.000000    
                                              FLOW ERR (QIN-QOUT-DV) = -0.9536743E-06 [L3/T]




 >>>>>>>>>>>>>>>>>>>>>>>>>>>>>>>>>>>>>>>>>>>>>>>>>>>>>>>FOR COMPONENT NO. 01<<<<<<<<<<<<<<<<<<<<<<<<<<<<<<<<<<<<<<<<<<<<<<<<<<<<<<<


                                            -------------------------------------------
                                                      TRANSPORT STEP NO.   94
                                            -------------------------------------------

 TOTAL ELAPSED TIME SINCE BEGINNING OF SIMULATION =   58320.00    D   
 .....................................................................

                     CUMULATIVE MASS BUDGETS AT END OF TRANSPORT STEP   94, TIME STEP    1, STRESS PERIOD    3
                     -----------------------------------------------------------------------------------------

                                                             IN                           OUT
                                                      ----------------             ----------------
                               CONSTANT CONCENTRATION:    0.000000                    0.000000    
                                        CONSTANT HEAD:    727.9669                   -404.2815    
                                               STREAM:    0.000000                   -323.6896    
                               MASS STOR (FLOW MODEL):   0.5161509E-02              -0.6986623E-07
                                MASS STORAGE (SOLUTE):    0.000000                    0.000000    
                            ---------------------------------------------------------------------------
                                              [TOTAL]:    727.9720     KG            -727.9711     KG  

                                                          NET (IN - OUT):   0.9765625E-03
                                                   DISCREPANCY (PERCENT):   0.1341484E-03
     2 CALLS TO GCG PACKAGE FOR TRANSPORT TIME STEP    95 IN FLOW TIME STEP     1 STRESS PERIOD     3
      2 TOTAL ITERATIONS
  MAXIMUM CONCENTRATION CHANGES FOR EACH ITERATION:
  MAX. CHANGE LAYER,ROW,COL MAX. CHANGE LAYER,ROW,COL MAX. CHANGE LAYER,ROW,COL MAX. CHANGE LAYER,ROW,COL MAX. CHANGE LAYER,ROW,COL
 ------------------------------------------------------------------------------------------------------------------------------------
    0.000     (  1,  1,  1)   0.000     (  1,  1,  1)


                     STREAM MASS BUDGETS AT END OF TRANSPORT STEP   95, TIME STEP    1, STRESS PERIOD    3 FOR COMPONENT   1
                     -------------------------------------------------------------------------------------------------------

                                         CUMULATIVE MASS [M]                                     MASS FOR THIS TIME STEP [M]
                                         -------------------                                    --------------
                      STREAM DEPLETION =   1568.182                          STREAM DEPLETION =   13.72374    
                      INFLOW TO STREAM =   3745.116                          INFLOW TO STREAM =   8.325000    
                          GW TO STREAM =   324.6886                              GW TO STREAM =  0.9990391    
                         PRECIPITATION =   0.000000                             PRECIPITATION =   0.000000    
                                RUNOFF =   0.000000                                    RUNOFF =   0.000000    
                CONSTANT CONCENTRATION =   0.000000                    CONSTANT CONCENTRATION =   0.000000    
                             MASS GAIN =   0.000000                                 MASS GAIN =   0.000000    
                                         -------------------                                    --------------
                              TOTAL IN =   5637.987                                  TOTAL IN =   23.04778    

                   STREAM ACCUMULATION =   1924.794                       STREAM ACCUMULATION =  0.1602312E-02
                        STREAM OUTFLOW =   3713.207                            STREAM OUTFLOW =   23.04618    
                          STREAM TO GW =   0.000000                              STREAM TO GW =   0.000000    
                CONSTANT CONCENTRATION =   0.000000                    CONSTANT CONCENTRATION =   0.000000    
                           EVAPORATION =   0.000000                               EVAPORATION =   0.000000    
                             MASS LOSS =   0.000000                                 MASS LOSS =   0.000000    
                                         -------------------                                    --------------
                             TOTAL OUT =   5638.001                                 TOTAL OUT =   23.04779    

                        NET (IN - OUT) = -0.1464844E-01                        NET (IN - OUT) = -0.3814697E-05
                 DISCREPANCY (PERCENT) = -0.2598165E-03                 DISCREPANCY (PERCENT) = -0.1655125E-04
                                              FLOW ERR (QIN-QOUT-DV) = -0.9536743E-06 [L3/T]




 >>>>>>>>>>>>>>>>>>>>>>>>>>>>>>>>>>>>>>>>>>>>>>>>>>>>>>>FOR COMPONENT NO. 01<<<<<<<<<<<<<<<<<<<<<<<<<<<<<<<<<<<<<<<<<<<<<<<<<<<<<<<


                                            -------------------------------------------
                                                      TRANSPORT STEP NO.   95
                                            -------------------------------------------

 TOTAL ELAPSED TIME SINCE BEGINNING OF SIMULATION =   58500.00    D   
 .....................................................................

                     CUMULATIVE MASS BUDGETS AT END OF TRANSPORT STEP   95, TIME STEP    1, STRESS PERIOD    3
                     -----------------------------------------------------------------------------------------

                                                             IN                           OUT
                                                      ----------------             ----------------
                               CONSTANT CONCENTRATION:    0.000000                    0.000000    
                                        CONSTANT HEAD:    730.2137                   -405.5293    
                                               STREAM:    0.000000                   -324.6886    
                               MASS STOR (FLOW MODEL):   0.5161509E-02              -0.6986623E-07
                                MASS STORAGE (SOLUTE):    0.000000                    0.000000    
                            ---------------------------------------------------------------------------
                                              [TOTAL]:    730.2189     KG            -730.2179     KG  

                                                          NET (IN - OUT):   0.9765625E-03
                                                   DISCREPANCY (PERCENT):   0.1337357E-03
     2 CALLS TO GCG PACKAGE FOR TRANSPORT TIME STEP    96 IN FLOW TIME STEP     1 STRESS PERIOD     3
      2 TOTAL ITERATIONS
  MAXIMUM CONCENTRATION CHANGES FOR EACH ITERATION:
  MAX. CHANGE LAYER,ROW,COL MAX. CHANGE LAYER,ROW,COL MAX. CHANGE LAYER,ROW,COL MAX. CHANGE LAYER,ROW,COL MAX. CHANGE LAYER,ROW,COL
 ------------------------------------------------------------------------------------------------------------------------------------
    0.000     (  1,  1,  1)   0.000     (  1,  1,  1)


                     STREAM MASS BUDGETS AT END OF TRANSPORT STEP   96, TIME STEP    1, STRESS PERIOD    3 FOR COMPONENT   1
                     -------------------------------------------------------------------------------------------------------

                                         CUMULATIVE MASS [M]                                     MASS FOR THIS TIME STEP [M]
                                         -------------------                                    --------------
                      STREAM DEPLETION =   1581.696                          STREAM DEPLETION =   13.51358    
                      INFLOW TO STREAM =   3753.441                          INFLOW TO STREAM =   8.325000    
                          GW TO STREAM =   325.6877                              GW TO STREAM =  0.9990391    
                         PRECIPITATION =   0.000000                             PRECIPITATION =   0.000000    
                                RUNOFF =   0.000000                                    RUNOFF =   0.000000    
                CONSTANT CONCENTRATION =   0.000000                    CONSTANT CONCENTRATION =   0.000000    
                             MASS GAIN =   0.000000                                 MASS GAIN =   0.000000    
                                         -------------------                                    --------------
                              TOTAL IN =   5660.824                                  TOTAL IN =   22.83762    

                   STREAM ACCUMULATION =   1924.796                       STREAM ACCUMULATION =  0.1529942E-02
                        STREAM OUTFLOW =   3736.043                            STREAM OUTFLOW =   22.83609    
                          STREAM TO GW =   0.000000                              STREAM TO GW =   0.000000    
                CONSTANT CONCENTRATION =   0.000000                    CONSTANT CONCENTRATION =   0.000000    
                           EVAPORATION =   0.000000                               EVAPORATION =   0.000000    
                             MASS LOSS =   0.000000                                 MASS LOSS =   0.000000    
                                         -------------------                                    --------------
                             TOTAL OUT =   5660.839                                 TOTAL OUT =   22.83762    

                        NET (IN - OUT) = -0.1464844E-01                        NET (IN - OUT) = -0.3814697E-05
                 DISCREPANCY (PERCENT) = -0.2587683E-03                 DISCREPANCY (PERCENT) = -0.1670357E-04
                                              FLOW ERR (QIN-QOUT-DV) = -0.9536743E-06 [L3/T]




 >>>>>>>>>>>>>>>>>>>>>>>>>>>>>>>>>>>>>>>>>>>>>>>>>>>>>>>FOR COMPONENT NO. 01<<<<<<<<<<<<<<<<<<<<<<<<<<<<<<<<<<<<<<<<<<<<<<<<<<<<<<<


                                            -------------------------------------------
                                                      TRANSPORT STEP NO.   96
                                            -------------------------------------------

 TOTAL ELAPSED TIME SINCE BEGINNING OF SIMULATION =   58680.00    D   
 .....................................................................

                     CUMULATIVE MASS BUDGETS AT END OF TRANSPORT STEP   96, TIME STEP    1, STRESS PERIOD    3
                     -----------------------------------------------------------------------------------------

                                                             IN                           OUT
                                                      ----------------             ----------------
                               CONSTANT CONCENTRATION:    0.000000                    0.000000    
                                        CONSTANT HEAD:    732.4605                   -406.7770    
                                               STREAM:    0.000000                   -325.6877    
                               MASS STOR (FLOW MODEL):   0.5161509E-02              -0.6986623E-07
                                MASS STORAGE (SOLUTE):    0.000000                    0.000000    
                            ---------------------------------------------------------------------------
                                              [TOTAL]:    732.4657     KG            -732.4647     KG  

                                                          NET (IN - OUT):   0.9765625E-03
                                                   DISCREPANCY (PERCENT):   0.1333254E-03
     2 CALLS TO GCG PACKAGE FOR TRANSPORT TIME STEP    97 IN FLOW TIME STEP     1 STRESS PERIOD     3
      2 TOTAL ITERATIONS
  MAXIMUM CONCENTRATION CHANGES FOR EACH ITERATION:
  MAX. CHANGE LAYER,ROW,COL MAX. CHANGE LAYER,ROW,COL MAX. CHANGE LAYER,ROW,COL MAX. CHANGE LAYER,ROW,COL MAX. CHANGE LAYER,ROW,COL
 ------------------------------------------------------------------------------------------------------------------------------------
    0.000     (  1,  1,  1)   0.000     (  1,  1,  1)


                     STREAM MASS BUDGETS AT END OF TRANSPORT STEP   97, TIME STEP    1, STRESS PERIOD    3 FOR COMPONENT   1
                     -------------------------------------------------------------------------------------------------------

                                         CUMULATIVE MASS [M]                                     MASS FOR THIS TIME STEP [M]
                                         -------------------                                    --------------
                      STREAM DEPLETION =   1594.984                          STREAM DEPLETION =   13.28857    
                      INFLOW TO STREAM =   3761.766                          INFLOW TO STREAM =   8.325000    
                          GW TO STREAM =   326.6867                              GW TO STREAM =  0.9990391    
                         PRECIPITATION =   0.000000                             PRECIPITATION =   0.000000    
                                RUNOFF =   0.000000                                    RUNOFF =   0.000000    
                CONSTANT CONCENTRATION =   0.000000                    CONSTANT CONCENTRATION =   0.000000    
                             MASS GAIN =   0.000000                                 MASS GAIN =   0.000000    
                                         -------------------                                    --------------
                              TOTAL IN =   5683.437                                  TOTAL IN =   22.61261    

                   STREAM ACCUMULATION =   1924.797                       STREAM ACCUMULATION =  0.1460708E-02
                        STREAM OUTFLOW =   3758.655                            STREAM OUTFLOW =   22.61115    
                          STREAM TO GW =   0.000000                              STREAM TO GW =   0.000000    
                CONSTANT CONCENTRATION =   0.000000                    CONSTANT CONCENTRATION =   0.000000    
                           EVAPORATION =   0.000000                               EVAPORATION =   0.000000    
                             MASS LOSS =   0.000000                                 MASS LOSS =   0.000000    
                                         -------------------                                    --------------
                             TOTAL OUT =   5683.452                                 TOTAL OUT =   22.61261    

                        NET (IN - OUT) = -0.1464844E-01                        NET (IN - OUT) = -0.1907349E-05
                 DISCREPANCY (PERCENT) = -0.2577387E-03                 DISCREPANCY (PERCENT) = -0.8434889E-05
                                              FLOW ERR (QIN-QOUT-DV) = -0.9536743E-06 [L3/T]




 >>>>>>>>>>>>>>>>>>>>>>>>>>>>>>>>>>>>>>>>>>>>>>>>>>>>>>>FOR COMPONENT NO. 01<<<<<<<<<<<<<<<<<<<<<<<<<<<<<<<<<<<<<<<<<<<<<<<<<<<<<<<


                                            -------------------------------------------
                                                      TRANSPORT STEP NO.   97
                                            -------------------------------------------

 TOTAL ELAPSED TIME SINCE BEGINNING OF SIMULATION =   58860.00    D   
 .....................................................................

                     CUMULATIVE MASS BUDGETS AT END OF TRANSPORT STEP   97, TIME STEP    1, STRESS PERIOD    3
                     -----------------------------------------------------------------------------------------

                                                             IN                           OUT
                                                      ----------------             ----------------
                               CONSTANT CONCENTRATION:    0.000000                    0.000000    
                                        CONSTANT HEAD:    734.7073                   -408.0248    
                                               STREAM:    0.000000                   -326.6867    
                               MASS STOR (FLOW MODEL):   0.5161509E-02              -0.6986623E-07
                                MASS STORAGE (SOLUTE):    0.000000                    0.000000    
                            ---------------------------------------------------------------------------
                                              [TOTAL]:    734.7125     KG            -734.7115     KG  

                                                          NET (IN - OUT):   0.9765625E-03
                                                   DISCREPANCY (PERCENT):   0.1329177E-03
     2 CALLS TO GCG PACKAGE FOR TRANSPORT TIME STEP    98 IN FLOW TIME STEP     1 STRESS PERIOD     3
      2 TOTAL ITERATIONS
  MAXIMUM CONCENTRATION CHANGES FOR EACH ITERATION:
  MAX. CHANGE LAYER,ROW,COL MAX. CHANGE LAYER,ROW,COL MAX. CHANGE LAYER,ROW,COL MAX. CHANGE LAYER,ROW,COL MAX. CHANGE LAYER,ROW,COL
 ------------------------------------------------------------------------------------------------------------------------------------
    0.000     (  1,  1,  1)   0.000     (  1,  1,  1)


                     STREAM MASS BUDGETS AT END OF TRANSPORT STEP   98, TIME STEP    1, STRESS PERIOD    3 FOR COMPONENT   1
                     -------------------------------------------------------------------------------------------------------

                                         CUMULATIVE MASS [M]                                     MASS FOR THIS TIME STEP [M]
                                         -------------------                                    --------------
                      STREAM DEPLETION =   1608.034                          STREAM DEPLETION =   13.04955    
                      INFLOW TO STREAM =   3770.091                          INFLOW TO STREAM =   8.325000    
                          GW TO STREAM =   327.6858                              GW TO STREAM =  0.9990391    
                         PRECIPITATION =   0.000000                             PRECIPITATION =   0.000000    
                                RUNOFF =   0.000000                                    RUNOFF =   0.000000    
                CONSTANT CONCENTRATION =   0.000000                    CONSTANT CONCENTRATION =   0.000000    
                             MASS GAIN =   0.000000                                 MASS GAIN =   0.000000    
                                         -------------------                                    --------------
                              TOTAL IN =   5705.811                                  TOTAL IN =   22.37359    

                   STREAM ACCUMULATION =   1924.798                       STREAM ACCUMULATION =  0.1394520E-02
                        STREAM OUTFLOW =   3781.027                            STREAM OUTFLOW =   22.37219    
                          STREAM TO GW =   0.000000                              STREAM TO GW =   0.000000    
                CONSTANT CONCENTRATION =   0.000000                    CONSTANT CONCENTRATION =   0.000000    
                           EVAPORATION =   0.000000                               EVAPORATION =   0.000000    
                             MASS LOSS =   0.000000                                 MASS LOSS =   0.000000    
                                         -------------------                                    --------------
                             TOTAL OUT =   5705.825                                 TOTAL OUT =   22.37358    

                        NET (IN - OUT) = -0.1464844E-01                        NET (IN - OUT) =  0.3814697E-05
                 DISCREPANCY (PERCENT) = -0.2567281E-03                 DISCREPANCY (PERCENT) =  0.1705000E-04
                                              FLOW ERR (QIN-QOUT-DV) = -0.9536743E-06 [L3/T]




 >>>>>>>>>>>>>>>>>>>>>>>>>>>>>>>>>>>>>>>>>>>>>>>>>>>>>>>FOR COMPONENT NO. 01<<<<<<<<<<<<<<<<<<<<<<<<<<<<<<<<<<<<<<<<<<<<<<<<<<<<<<<


                                            -------------------------------------------
                                                      TRANSPORT STEP NO.   98
                                            -------------------------------------------

 TOTAL ELAPSED TIME SINCE BEGINNING OF SIMULATION =   59040.00    D   
 .....................................................................

                     CUMULATIVE MASS BUDGETS AT END OF TRANSPORT STEP   98, TIME STEP    1, STRESS PERIOD    3
                     -----------------------------------------------------------------------------------------

                                                             IN                           OUT
                                                      ----------------             ----------------
                               CONSTANT CONCENTRATION:    0.000000                    0.000000    
                                        CONSTANT HEAD:    736.9542                   -409.2726    
                                               STREAM:    0.000000                   -327.6858    
                               MASS STOR (FLOW MODEL):   0.5161509E-02              -0.6986623E-07
                                MASS STORAGE (SOLUTE):    0.000000                    0.000000    
                            ---------------------------------------------------------------------------
                                              [TOTAL]:    736.9594     KG            -736.9584     KG  

                                                          NET (IN - OUT):   0.9765625E-03
                                                   DISCREPANCY (PERCENT):   0.1325125E-03
     2 CALLS TO GCG PACKAGE FOR TRANSPORT TIME STEP    99 IN FLOW TIME STEP     1 STRESS PERIOD     3
      2 TOTAL ITERATIONS
  MAXIMUM CONCENTRATION CHANGES FOR EACH ITERATION:
  MAX. CHANGE LAYER,ROW,COL MAX. CHANGE LAYER,ROW,COL MAX. CHANGE LAYER,ROW,COL MAX. CHANGE LAYER,ROW,COL MAX. CHANGE LAYER,ROW,COL
 ------------------------------------------------------------------------------------------------------------------------------------
    0.000     (  1,  1,  1)   0.000     (  1,  1,  1)


                     STREAM MASS BUDGETS AT END OF TRANSPORT STEP   99, TIME STEP    1, STRESS PERIOD    3 FOR COMPONENT   1
                     -------------------------------------------------------------------------------------------------------

                                         CUMULATIVE MASS [M]                                     MASS FOR THIS TIME STEP [M]
                                         -------------------                                    --------------
                      STREAM DEPLETION =   1620.831                          STREAM DEPLETION =   12.79741    
                      INFLOW TO STREAM =   3778.416                          INFLOW TO STREAM =   8.325000    
                          GW TO STREAM =   328.6848                              GW TO STREAM =  0.9990391    
                         PRECIPITATION =   0.000000                             PRECIPITATION =   0.000000    
                                RUNOFF =   0.000000                                    RUNOFF =   0.000000    
                CONSTANT CONCENTRATION =   0.000000                    CONSTANT CONCENTRATION =   0.000000    
                             MASS GAIN =   0.000000                                 MASS GAIN =   0.000000    
                                         -------------------                                    --------------
                              TOTAL IN =   5727.932                                  TOTAL IN =   22.12145    

                   STREAM ACCUMULATION =   1924.800                       STREAM ACCUMULATION =  0.1331306E-02
                        STREAM OUTFLOW =   3803.147                            STREAM OUTFLOW =   22.12012    
                          STREAM TO GW =   0.000000                              STREAM TO GW =   0.000000    
                CONSTANT CONCENTRATION =   0.000000                    CONSTANT CONCENTRATION =   0.000000    
                           EVAPORATION =   0.000000                               EVAPORATION =   0.000000    
                             MASS LOSS =   0.000000                                 MASS LOSS =   0.000000    
                                         -------------------                                    --------------
                             TOTAL OUT =   5727.946                                 TOTAL OUT =   22.12145    

                        NET (IN - OUT) = -0.1464844E-01                        NET (IN - OUT) = -0.1907349E-05
                 DISCREPANCY (PERCENT) = -0.2557366E-03                 DISCREPANCY (PERCENT) = -0.8622169E-05
                                              FLOW ERR (QIN-QOUT-DV) = -0.9536743E-06 [L3/T]




 >>>>>>>>>>>>>>>>>>>>>>>>>>>>>>>>>>>>>>>>>>>>>>>>>>>>>>>FOR COMPONENT NO. 01<<<<<<<<<<<<<<<<<<<<<<<<<<<<<<<<<<<<<<<<<<<<<<<<<<<<<<<


                                            -------------------------------------------
                                                      TRANSPORT STEP NO.   99
                                            -------------------------------------------

 TOTAL ELAPSED TIME SINCE BEGINNING OF SIMULATION =   59220.00    D   
 .....................................................................

                     CUMULATIVE MASS BUDGETS AT END OF TRANSPORT STEP   99, TIME STEP    1, STRESS PERIOD    3
                     -----------------------------------------------------------------------------------------

                                                             IN                           OUT
                                                      ----------------             ----------------
                               CONSTANT CONCENTRATION:    0.000000                    0.000000    
                                        CONSTANT HEAD:    739.2010                   -410.5204    
                                               STREAM:    0.000000                   -328.6848    
                               MASS STOR (FLOW MODEL):   0.5161509E-02              -0.6986623E-07
                                MASS STORAGE (SOLUTE):    0.000000                    0.000000    
                            ---------------------------------------------------------------------------
                                              [TOTAL]:    739.2062     KG            -739.2052     KG  

                                                          NET (IN - OUT):   0.9765625E-03
                                                   DISCREPANCY (PERCENT):   0.1321097E-03
     2 CALLS TO GCG PACKAGE FOR TRANSPORT TIME STEP   100 IN FLOW TIME STEP     1 STRESS PERIOD     3
      2 TOTAL ITERATIONS
  MAXIMUM CONCENTRATION CHANGES FOR EACH ITERATION:
  MAX. CHANGE LAYER,ROW,COL MAX. CHANGE LAYER,ROW,COL MAX. CHANGE LAYER,ROW,COL MAX. CHANGE LAYER,ROW,COL MAX. CHANGE LAYER,ROW,COL
 ------------------------------------------------------------------------------------------------------------------------------------
    0.000     (  1,  1,  1)   0.000     (  1,  1,  1)


                     STREAM MASS BUDGETS AT END OF TRANSPORT STEP  100, TIME STEP    1, STRESS PERIOD    3 FOR COMPONENT   1
                     -------------------------------------------------------------------------------------------------------

                                         CUMULATIVE MASS [M]                                     MASS FOR THIS TIME STEP [M]
                                         -------------------                                    --------------
                      STREAM DEPLETION =   1633.364                          STREAM DEPLETION =   12.53312    
                      INFLOW TO STREAM =   3786.741                          INFLOW TO STREAM =   8.325000    
                          GW TO STREAM =   329.6839                              GW TO STREAM =  0.9990391    
                         PRECIPITATION =   0.000000                             PRECIPITATION =   0.000000    
                                RUNOFF =   0.000000                                    RUNOFF =   0.000000    
                CONSTANT CONCENTRATION =   0.000000                    CONSTANT CONCENTRATION =   0.000000    
                             MASS GAIN =   0.000000                                 MASS GAIN =   0.000000    
                                         -------------------                                    --------------
                              TOTAL IN =   5749.789                                  TOTAL IN =   21.85716    

                   STREAM ACCUMULATION =   1924.801                       STREAM ACCUMULATION =  0.1270854E-02
                        STREAM OUTFLOW =   3825.003                            STREAM OUTFLOW =   21.85590    
                          STREAM TO GW =   0.000000                              STREAM TO GW =   0.000000    
                CONSTANT CONCENTRATION =   0.000000                    CONSTANT CONCENTRATION =   0.000000    
                           EVAPORATION =   0.000000                               EVAPORATION =   0.000000    
                             MASS LOSS =   0.000000                                 MASS LOSS =   0.000000    
                                         -------------------                                    --------------
                             TOTAL OUT =   5749.804                                 TOTAL OUT =   21.85717    

                        NET (IN - OUT) = -0.1464844E-01                        NET (IN - OUT) = -0.3814697E-05
                 DISCREPANCY (PERCENT) = -0.2547645E-03                 DISCREPANCY (PERCENT) = -0.1745285E-04
                                              FLOW ERR (QIN-QOUT-DV) = -0.9536743E-06 [L3/T]




 >>>>>>>>>>>>>>>>>>>>>>>>>>>>>>>>>>>>>>>>>>>>>>>>>>>>>>>FOR COMPONENT NO. 01<<<<<<<<<<<<<<<<<<<<<<<<<<<<<<<<<<<<<<<<<<<<<<<<<<<<<<<


                                            -------------------------------------------
                                                      TRANSPORT STEP NO.  100
                                            -------------------------------------------

 TOTAL ELAPSED TIME SINCE BEGINNING OF SIMULATION =   59400.00    D   
 .....................................................................

                     CUMULATIVE MASS BUDGETS AT END OF TRANSPORT STEP  100, TIME STEP    1, STRESS PERIOD    3
                     -----------------------------------------------------------------------------------------

                                                             IN                           OUT
                                                      ----------------             ----------------
                               CONSTANT CONCENTRATION:    0.000000                    0.000000    
                                        CONSTANT HEAD:    741.4478                   -411.7681    
                                               STREAM:    0.000000                   -329.6839    
                               MASS STOR (FLOW MODEL):   0.5161509E-02              -0.6986623E-07
                                MASS STORAGE (SOLUTE):    0.000000                    0.000000    
                            ---------------------------------------------------------------------------
                                              [TOTAL]:    741.4530     KG            -741.4520     KG  

                                                          NET (IN - OUT):   0.9765625E-03
                                                   DISCREPANCY (PERCENT):   0.1317094E-03
     2 CALLS TO GCG PACKAGE FOR TRANSPORT TIME STEP   101 IN FLOW TIME STEP     1 STRESS PERIOD     3
      2 TOTAL ITERATIONS
  MAXIMUM CONCENTRATION CHANGES FOR EACH ITERATION:
  MAX. CHANGE LAYER,ROW,COL MAX. CHANGE LAYER,ROW,COL MAX. CHANGE LAYER,ROW,COL MAX. CHANGE LAYER,ROW,COL MAX. CHANGE LAYER,ROW,COL
 ------------------------------------------------------------------------------------------------------------------------------------
    0.000     (  1,  1,  1)   0.000     (  1,  1,  1)


                     STREAM MASS BUDGETS AT END OF TRANSPORT STEP  101, TIME STEP    1, STRESS PERIOD    3 FOR COMPONENT   1
                     -------------------------------------------------------------------------------------------------------

                                         CUMULATIVE MASS [M]                                     MASS FOR THIS TIME STEP [M]
                                         -------------------                                    --------------
                      STREAM DEPLETION =   1645.622                          STREAM DEPLETION =   12.25771    
                      INFLOW TO STREAM =   3795.066                          INFLOW TO STREAM =   8.325000    
                          GW TO STREAM =   330.6830                              GW TO STREAM =  0.9990391    
                         PRECIPITATION =   0.000000                             PRECIPITATION =   0.000000    
                                RUNOFF =   0.000000                                    RUNOFF =   0.000000    
                CONSTANT CONCENTRATION =   0.000000                    CONSTANT CONCENTRATION =   0.000000    
                             MASS GAIN =   0.000000                                 MASS GAIN =   0.000000    
                                         -------------------                                    --------------
                              TOTAL IN =   5771.371                                  TOTAL IN =   21.58175    

                   STREAM ACCUMULATION =   1924.802                       STREAM ACCUMULATION =  0.1213051E-02
                        STREAM OUTFLOW =   3846.583                            STREAM OUTFLOW =   21.58053    
                          STREAM TO GW =   0.000000                              STREAM TO GW =   0.000000    
                CONSTANT CONCENTRATION =   0.000000                    CONSTANT CONCENTRATION =   0.000000    
                           EVAPORATION =   0.000000                               EVAPORATION =   0.000000    
                             MASS LOSS =   0.000000                                 MASS LOSS =   0.000000    
                                         -------------------                                    --------------
                             TOTAL OUT =   5771.386                                 TOTAL OUT =   21.58174    

                        NET (IN - OUT) = -0.1513672E-01                        NET (IN - OUT) =  0.5722046E-05
                 DISCREPANCY (PERCENT) = -0.2622722E-03                 DISCREPANCY (PERCENT) =  0.2651336E-04
                                              FLOW ERR (QIN-QOUT-DV) = -0.9536743E-06 [L3/T]




 >>>>>>>>>>>>>>>>>>>>>>>>>>>>>>>>>>>>>>>>>>>>>>>>>>>>>>>FOR COMPONENT NO. 01<<<<<<<<<<<<<<<<<<<<<<<<<<<<<<<<<<<<<<<<<<<<<<<<<<<<<<<


                                            -------------------------------------------
                                                      TRANSPORT STEP NO.  101
                                            -------------------------------------------

 TOTAL ELAPSED TIME SINCE BEGINNING OF SIMULATION =   59580.00    D   
 .....................................................................

                     CUMULATIVE MASS BUDGETS AT END OF TRANSPORT STEP  101, TIME STEP    1, STRESS PERIOD    3
                     -----------------------------------------------------------------------------------------

                                                             IN                           OUT
                                                      ----------------             ----------------
                               CONSTANT CONCENTRATION:    0.000000                    0.000000    
                                        CONSTANT HEAD:    743.6946                   -413.0159    
                                               STREAM:    0.000000                   -330.6830    
                               MASS STOR (FLOW MODEL):   0.5161509E-02              -0.6986623E-07
                                MASS STORAGE (SOLUTE):    0.000000                    0.000000    
                            ---------------------------------------------------------------------------
                                              [TOTAL]:    743.6998     KG            -743.6989     KG  

                                                          NET (IN - OUT):   0.9765625E-03
                                                   DISCREPANCY (PERCENT):   0.1313115E-03
     2 CALLS TO GCG PACKAGE FOR TRANSPORT TIME STEP   102 IN FLOW TIME STEP     1 STRESS PERIOD     3
      2 TOTAL ITERATIONS
  MAXIMUM CONCENTRATION CHANGES FOR EACH ITERATION:
  MAX. CHANGE LAYER,ROW,COL MAX. CHANGE LAYER,ROW,COL MAX. CHANGE LAYER,ROW,COL MAX. CHANGE LAYER,ROW,COL MAX. CHANGE LAYER,ROW,COL
 ------------------------------------------------------------------------------------------------------------------------------------
    0.000     (  1,  1,  1)   0.000     (  1,  1,  1)


                     STREAM MASS BUDGETS AT END OF TRANSPORT STEP  102, TIME STEP    1, STRESS PERIOD    3 FOR COMPONENT   1
                     -------------------------------------------------------------------------------------------------------

                                         CUMULATIVE MASS [M]                                     MASS FOR THIS TIME STEP [M]
                                         -------------------                                    --------------
                      STREAM DEPLETION =   1657.594                          STREAM DEPLETION =   11.97219    
                      INFLOW TO STREAM =   3803.391                          INFLOW TO STREAM =   8.325000    
                          GW TO STREAM =   331.6820                              GW TO STREAM =  0.9990391    
                         PRECIPITATION =   0.000000                             PRECIPITATION =   0.000000    
                                RUNOFF =   0.000000                                    RUNOFF =   0.000000    
                CONSTANT CONCENTRATION =   0.000000                    CONSTANT CONCENTRATION =   0.000000    
                             MASS GAIN =   0.000000                                 MASS GAIN =   0.000000    
                                         -------------------                                    --------------
                              TOTAL IN =   5792.667                                  TOTAL IN =   21.29623    

                   STREAM ACCUMULATION =   1924.803                       STREAM ACCUMULATION =  0.1157791E-02
                        STREAM OUTFLOW =   3867.878                            STREAM OUTFLOW =   21.29507    
                          STREAM TO GW =   0.000000                              STREAM TO GW =   0.000000    
                CONSTANT CONCENTRATION =   0.000000                    CONSTANT CONCENTRATION =   0.000000    
                           EVAPORATION =   0.000000                               EVAPORATION =   0.000000    
                             MASS LOSS =   0.000000                                 MASS LOSS =   0.000000    
                                         -------------------                                    --------------
                             TOTAL OUT =   5792.682                                 TOTAL OUT =   21.29623    

                        NET (IN - OUT) = -0.1464844E-01                        NET (IN - OUT) = -0.1907349E-05
                 DISCREPANCY (PERCENT) = -0.2528787E-03                 DISCREPANCY (PERCENT) = -0.8956274E-05
                                              FLOW ERR (QIN-QOUT-DV) = -0.9536743E-06 [L3/T]




 >>>>>>>>>>>>>>>>>>>>>>>>>>>>>>>>>>>>>>>>>>>>>>>>>>>>>>>FOR COMPONENT NO. 01<<<<<<<<<<<<<<<<<<<<<<<<<<<<<<<<<<<<<<<<<<<<<<<<<<<<<<<


                                            -------------------------------------------
                                                      TRANSPORT STEP NO.  102
                                            -------------------------------------------

 TOTAL ELAPSED TIME SINCE BEGINNING OF SIMULATION =   59760.00    D   
 .....................................................................

                     CUMULATIVE MASS BUDGETS AT END OF TRANSPORT STEP  102, TIME STEP    1, STRESS PERIOD    3
                     -----------------------------------------------------------------------------------------

                                                             IN                           OUT
                                                      ----------------             ----------------
                               CONSTANT CONCENTRATION:    0.000000                    0.000000    
                                        CONSTANT HEAD:    745.9415                   -414.2637    
                                               STREAM:    0.000000                   -331.6820    
                               MASS STOR (FLOW MODEL):   0.5161509E-02              -0.6986623E-07
                                MASS STORAGE (SOLUTE):    0.000000                    0.000000    
                            ---------------------------------------------------------------------------
                                              [TOTAL]:    745.9467     KG            -745.9457     KG  

                                                          NET (IN - OUT):   0.9765625E-03
                                                   DISCREPANCY (PERCENT):   0.1309159E-03
     2 CALLS TO GCG PACKAGE FOR TRANSPORT TIME STEP   103 IN FLOW TIME STEP     1 STRESS PERIOD     3
      2 TOTAL ITERATIONS
  MAXIMUM CONCENTRATION CHANGES FOR EACH ITERATION:
  MAX. CHANGE LAYER,ROW,COL MAX. CHANGE LAYER,ROW,COL MAX. CHANGE LAYER,ROW,COL MAX. CHANGE LAYER,ROW,COL MAX. CHANGE LAYER,ROW,COL
 ------------------------------------------------------------------------------------------------------------------------------------
    0.000     (  1,  1,  1)   0.000     (  1,  1,  1)


                     STREAM MASS BUDGETS AT END OF TRANSPORT STEP  103, TIME STEP    1, STRESS PERIOD    3 FOR COMPONENT   1
                     -------------------------------------------------------------------------------------------------------

                                         CUMULATIVE MASS [M]                                     MASS FOR THIS TIME STEP [M]
                                         -------------------                                    --------------
                      STREAM DEPLETION =   1669.272                          STREAM DEPLETION =   11.67767    
                      INFLOW TO STREAM =   3811.716                          INFLOW TO STREAM =   8.325000    
                          GW TO STREAM =   332.6811                              GW TO STREAM =  0.9990391    
                         PRECIPITATION =   0.000000                             PRECIPITATION =   0.000000    
                                RUNOFF =   0.000000                                    RUNOFF =   0.000000    
                CONSTANT CONCENTRATION =   0.000000                    CONSTANT CONCENTRATION =   0.000000    
                             MASS GAIN =   0.000000                                 MASS GAIN =   0.000000    
                                         -------------------                                    --------------
                              TOTAL IN =   5813.668                                  TOTAL IN =   21.00171    

                   STREAM ACCUMULATION =   1924.804                       STREAM ACCUMULATION =  0.1104970E-02
                        STREAM OUTFLOW =   3888.879                            STREAM OUTFLOW =   21.00061    
                          STREAM TO GW =   0.000000                              STREAM TO GW =   0.000000    
                CONSTANT CONCENTRATION =   0.000000                    CONSTANT CONCENTRATION =   0.000000    
                           EVAPORATION =   0.000000                               EVAPORATION =   0.000000    
                             MASS LOSS =   0.000000                                 MASS LOSS =   0.000000    
                                         -------------------                                    --------------
                             TOTAL OUT =   5813.684                                 TOTAL OUT =   21.00171    

                        NET (IN - OUT) = -0.1513672E-01                        NET (IN - OUT) =   0.000000    
                 DISCREPANCY (PERCENT) = -0.2603640E-03                 DISCREPANCY (PERCENT) =   0.000000    
                                              FLOW ERR (QIN-QOUT-DV) = -0.9536743E-06 [L3/T]




 >>>>>>>>>>>>>>>>>>>>>>>>>>>>>>>>>>>>>>>>>>>>>>>>>>>>>>>FOR COMPONENT NO. 01<<<<<<<<<<<<<<<<<<<<<<<<<<<<<<<<<<<<<<<<<<<<<<<<<<<<<<<


                                            -------------------------------------------
                                                      TRANSPORT STEP NO.  103
                                            -------------------------------------------

 TOTAL ELAPSED TIME SINCE BEGINNING OF SIMULATION =   59940.00    D   
 .....................................................................

                     CUMULATIVE MASS BUDGETS AT END OF TRANSPORT STEP  103, TIME STEP    1, STRESS PERIOD    3
                     -----------------------------------------------------------------------------------------

                                                             IN                           OUT
                                                      ----------------             ----------------
                               CONSTANT CONCENTRATION:    0.000000                    0.000000    
                                        CONSTANT HEAD:    748.1883                   -415.5114    
                                               STREAM:    0.000000                   -332.6811    
                               MASS STOR (FLOW MODEL):   0.5161509E-02              -0.6986623E-07
                                MASS STORAGE (SOLUTE):    0.000000                    0.000000    
                            ---------------------------------------------------------------------------
                                              [TOTAL]:    748.1935     KG            -748.1925     KG  

                                                          NET (IN - OUT):   0.9765625E-03
                                                   DISCREPANCY (PERCENT):   0.1305228E-03
     2 CALLS TO GCG PACKAGE FOR TRANSPORT TIME STEP   104 IN FLOW TIME STEP     1 STRESS PERIOD     3
      2 TOTAL ITERATIONS
  MAXIMUM CONCENTRATION CHANGES FOR EACH ITERATION:
  MAX. CHANGE LAYER,ROW,COL MAX. CHANGE LAYER,ROW,COL MAX. CHANGE LAYER,ROW,COL MAX. CHANGE LAYER,ROW,COL MAX. CHANGE LAYER,ROW,COL
 ------------------------------------------------------------------------------------------------------------------------------------
    0.000     (  1,  1,  1)   0.000     (  1,  1,  1)


                     STREAM MASS BUDGETS AT END OF TRANSPORT STEP  104, TIME STEP    1, STRESS PERIOD    3 FOR COMPONENT   1
                     -------------------------------------------------------------------------------------------------------

                                         CUMULATIVE MASS [M]                                     MASS FOR THIS TIME STEP [M]
                                         -------------------                                    --------------
                      STREAM DEPLETION =   1680.647                          STREAM DEPLETION =   11.37525    
                      INFLOW TO STREAM =   3820.041                          INFLOW TO STREAM =   8.325000    
                          GW TO STREAM =   333.6801                              GW TO STREAM =  0.9990391    
                         PRECIPITATION =   0.000000                             PRECIPITATION =   0.000000    
                                RUNOFF =   0.000000                                    RUNOFF =   0.000000    
                CONSTANT CONCENTRATION =   0.000000                    CONSTANT CONCENTRATION =   0.000000    
                             MASS GAIN =   0.000000                                 MASS GAIN =   0.000000    
                                         -------------------                                    --------------
                              TOTAL IN =   5834.368                                  TOTAL IN =   20.69928    

                   STREAM ACCUMULATION =   1924.806                       STREAM ACCUMULATION =  0.1054486E-02
                        STREAM OUTFLOW =   3909.577                            STREAM OUTFLOW =   20.69823    
                          STREAM TO GW =   0.000000                              STREAM TO GW =   0.000000    
                CONSTANT CONCENTRATION =   0.000000                    CONSTANT CONCENTRATION =   0.000000    
                           EVAPORATION =   0.000000                               EVAPORATION =   0.000000    
                             MASS LOSS =   0.000000                                 MASS LOSS =   0.000000    
                                         -------------------                                    --------------
                             TOTAL OUT =   5834.383                                 TOTAL OUT =   20.69929    

                        NET (IN - OUT) = -0.1464844E-01                        NET (IN - OUT) = -0.3814697E-05
                 DISCREPANCY (PERCENT) = -0.2510712E-03                 DISCREPANCY (PERCENT) = -0.1842913E-04
                                              FLOW ERR (QIN-QOUT-DV) = -0.9536743E-06 [L3/T]




 >>>>>>>>>>>>>>>>>>>>>>>>>>>>>>>>>>>>>>>>>>>>>>>>>>>>>>>FOR COMPONENT NO. 01<<<<<<<<<<<<<<<<<<<<<<<<<<<<<<<<<<<<<<<<<<<<<<<<<<<<<<<


                                            -------------------------------------------
                                                      TRANSPORT STEP NO.  104
                                            -------------------------------------------

 TOTAL ELAPSED TIME SINCE BEGINNING OF SIMULATION =   60120.00    D   
 .....................................................................

                     CUMULATIVE MASS BUDGETS AT END OF TRANSPORT STEP  104, TIME STEP    1, STRESS PERIOD    3
                     -----------------------------------------------------------------------------------------

                                                             IN                           OUT
                                                      ----------------             ----------------
                               CONSTANT CONCENTRATION:    0.000000                    0.000000    
                                        CONSTANT HEAD:    750.4351                   -416.7592    
                                               STREAM:    0.000000                   -333.6801    
                               MASS STOR (FLOW MODEL):   0.5161509E-02              -0.6986623E-07
                                MASS STORAGE (SOLUTE):    0.000000                    0.000000    
                            ---------------------------------------------------------------------------
                                              [TOTAL]:    750.4403     KG            -750.4393     KG  

                                                          NET (IN - OUT):   0.9765625E-03
                                                   DISCREPANCY (PERCENT):   0.1301320E-03
     2 CALLS TO GCG PACKAGE FOR TRANSPORT TIME STEP   105 IN FLOW TIME STEP     1 STRESS PERIOD     3
      2 TOTAL ITERATIONS
  MAXIMUM CONCENTRATION CHANGES FOR EACH ITERATION:
  MAX. CHANGE LAYER,ROW,COL MAX. CHANGE LAYER,ROW,COL MAX. CHANGE LAYER,ROW,COL MAX. CHANGE LAYER,ROW,COL MAX. CHANGE LAYER,ROW,COL
 ------------------------------------------------------------------------------------------------------------------------------------
    0.000     (  1,  1,  1)   0.000     (  1,  1,  1)


                     STREAM MASS BUDGETS AT END OF TRANSPORT STEP  105, TIME STEP    1, STRESS PERIOD    3 FOR COMPONENT   1
                     -------------------------------------------------------------------------------------------------------

                                         CUMULATIVE MASS [M]                                     MASS FOR THIS TIME STEP [M]
                                         -------------------                                    --------------
                      STREAM DEPLETION =   1691.713                          STREAM DEPLETION =   11.06602    
                      INFLOW TO STREAM =   3828.366                          INFLOW TO STREAM =   8.325000    
                          GW TO STREAM =   334.6792                              GW TO STREAM =  0.9990391    
                         PRECIPITATION =   0.000000                             PRECIPITATION =   0.000000    
                                RUNOFF =   0.000000                                    RUNOFF =   0.000000    
                CONSTANT CONCENTRATION =   0.000000                    CONSTANT CONCENTRATION =   0.000000    
                             MASS GAIN =   0.000000                                 MASS GAIN =   0.000000    
                                         -------------------                                    --------------
                              TOTAL IN =   5854.758                                  TOTAL IN =   20.39006    

                   STREAM ACCUMULATION =   1924.807                       STREAM ACCUMULATION =  0.1006244E-02
                        STREAM OUTFLOW =   3929.966                            STREAM OUTFLOW =   20.38906    
                          STREAM TO GW =   0.000000                              STREAM TO GW =   0.000000    
                CONSTANT CONCENTRATION =   0.000000                    CONSTANT CONCENTRATION =   0.000000    
                           EVAPORATION =   0.000000                               EVAPORATION =   0.000000    
                             MASS LOSS =   0.000000                                 MASS LOSS =   0.000000    
                                         -------------------                                    --------------
                             TOTAL OUT =   5854.773                                 TOTAL OUT =   20.39006    

                        NET (IN - OUT) = -0.1513672E-01                        NET (IN - OUT) =   0.000000    
                 DISCREPANCY (PERCENT) = -0.2585367E-03                 DISCREPANCY (PERCENT) =   0.000000    
                                              FLOW ERR (QIN-QOUT-DV) = -0.9536743E-06 [L3/T]




 >>>>>>>>>>>>>>>>>>>>>>>>>>>>>>>>>>>>>>>>>>>>>>>>>>>>>>>FOR COMPONENT NO. 01<<<<<<<<<<<<<<<<<<<<<<<<<<<<<<<<<<<<<<<<<<<<<<<<<<<<<<<


                                            -------------------------------------------
                                                      TRANSPORT STEP NO.  105
                                            -------------------------------------------

 TOTAL ELAPSED TIME SINCE BEGINNING OF SIMULATION =   60300.00    D   
 .....................................................................

                     CUMULATIVE MASS BUDGETS AT END OF TRANSPORT STEP  105, TIME STEP    1, STRESS PERIOD    3
                     -----------------------------------------------------------------------------------------

                                                             IN                           OUT
                                                      ----------------             ----------------
                               CONSTANT CONCENTRATION:    0.000000                    0.000000    
                                        CONSTANT HEAD:    752.6819                   -418.0070    
                                               STREAM:    0.000000                   -334.6792    
                               MASS STOR (FLOW MODEL):   0.5161509E-02              -0.6986623E-07
                                MASS STORAGE (SOLUTE):    0.000000                    0.000000    
                            ---------------------------------------------------------------------------
                                              [TOTAL]:    752.6871     KG            -752.6862     KG  

                                                          NET (IN - OUT):   0.9765625E-03
                                                   DISCREPANCY (PERCENT):   0.1297436E-03
     2 CALLS TO GCG PACKAGE FOR TRANSPORT TIME STEP   106 IN FLOW TIME STEP     1 STRESS PERIOD     3
      2 TOTAL ITERATIONS
  MAXIMUM CONCENTRATION CHANGES FOR EACH ITERATION:
  MAX. CHANGE LAYER,ROW,COL MAX. CHANGE LAYER,ROW,COL MAX. CHANGE LAYER,ROW,COL MAX. CHANGE LAYER,ROW,COL MAX. CHANGE LAYER,ROW,COL
 ------------------------------------------------------------------------------------------------------------------------------------
    0.000     (  1,  1,  1)   0.000     (  1,  1,  1)


                     STREAM MASS BUDGETS AT END OF TRANSPORT STEP  106, TIME STEP    1, STRESS PERIOD    3 FOR COMPONENT   1
                     -------------------------------------------------------------------------------------------------------

                                         CUMULATIVE MASS [M]                                     MASS FOR THIS TIME STEP [M]
                                         -------------------                                    --------------
                      STREAM DEPLETION =   1702.464                          STREAM DEPLETION =   10.75112    
                      INFLOW TO STREAM =   3836.691                          INFLOW TO STREAM =   8.325000    
                          GW TO STREAM =   335.6782                              GW TO STREAM =  0.9990391    
                         PRECIPITATION =   0.000000                             PRECIPITATION =   0.000000    
                                RUNOFF =   0.000000                                    RUNOFF =   0.000000    
                CONSTANT CONCENTRATION =   0.000000                    CONSTANT CONCENTRATION =   0.000000    
                             MASS GAIN =   0.000000                                 MASS GAIN =   0.000000    
                                         -------------------                                    --------------
                              TOTAL IN =   5874.833                                  TOTAL IN =   20.07516    

                   STREAM ACCUMULATION =   1924.807                       STREAM ACCUMULATION =  0.9601588E-03
                        STREAM OUTFLOW =   3950.041                            STREAM OUTFLOW =   20.07420    
                          STREAM TO GW =   0.000000                              STREAM TO GW =   0.000000    
                CONSTANT CONCENTRATION =   0.000000                    CONSTANT CONCENTRATION =   0.000000    
                           EVAPORATION =   0.000000                               EVAPORATION =   0.000000    
                             MASS LOSS =   0.000000                                 MASS LOSS =   0.000000    
                                         -------------------                                    --------------
                             TOTAL OUT =   5874.848                                 TOTAL OUT =   20.07516    

                        NET (IN - OUT) = -0.1513672E-01                        NET (IN - OUT) =   0.000000    
                 DISCREPANCY (PERCENT) = -0.2576533E-03                 DISCREPANCY (PERCENT) =   0.000000    
                                              FLOW ERR (QIN-QOUT-DV) = -0.9536743E-06 [L3/T]




 >>>>>>>>>>>>>>>>>>>>>>>>>>>>>>>>>>>>>>>>>>>>>>>>>>>>>>>FOR COMPONENT NO. 01<<<<<<<<<<<<<<<<<<<<<<<<<<<<<<<<<<<<<<<<<<<<<<<<<<<<<<<


                                            -------------------------------------------
                                                      TRANSPORT STEP NO.  106
                                            -------------------------------------------

 TOTAL ELAPSED TIME SINCE BEGINNING OF SIMULATION =   60480.00    D   
 .....................................................................

                     CUMULATIVE MASS BUDGETS AT END OF TRANSPORT STEP  106, TIME STEP    1, STRESS PERIOD    3
                     -----------------------------------------------------------------------------------------

                                                             IN                           OUT
                                                      ----------------             ----------------
                               CONSTANT CONCENTRATION:    0.000000                    0.000000    
                                        CONSTANT HEAD:    754.9288                   -419.2548    
                                               STREAM:    0.000000                   -335.6782    
                               MASS STOR (FLOW MODEL):   0.5161509E-02              -0.6986623E-07
                                MASS STORAGE (SOLUTE):    0.000000                    0.000000    
                            ---------------------------------------------------------------------------
                                              [TOTAL]:    754.9340     KG            -754.9330     KG  

                                                          NET (IN - OUT):   0.9765625E-03
                                                   DISCREPANCY (PERCENT):   0.1293574E-03
     2 CALLS TO GCG PACKAGE FOR TRANSPORT TIME STEP   107 IN FLOW TIME STEP     1 STRESS PERIOD     3
      2 TOTAL ITERATIONS
  MAXIMUM CONCENTRATION CHANGES FOR EACH ITERATION:
  MAX. CHANGE LAYER,ROW,COL MAX. CHANGE LAYER,ROW,COL MAX. CHANGE LAYER,ROW,COL MAX. CHANGE LAYER,ROW,COL MAX. CHANGE LAYER,ROW,COL
 ------------------------------------------------------------------------------------------------------------------------------------
    0.000     (  1,  1,  1)   0.000     (  1,  1,  1)


                     STREAM MASS BUDGETS AT END OF TRANSPORT STEP  107, TIME STEP    1, STRESS PERIOD    3 FOR COMPONENT   1
                     -------------------------------------------------------------------------------------------------------

                                         CUMULATIVE MASS [M]                                     MASS FOR THIS TIME STEP [M]
                                         -------------------                                    --------------
                      STREAM DEPLETION =   1712.896                          STREAM DEPLETION =   10.43164    
                      INFLOW TO STREAM =   3845.016                          INFLOW TO STREAM =   8.325000    
                          GW TO STREAM =   336.6773                              GW TO STREAM =  0.9990391    
                         PRECIPITATION =   0.000000                             PRECIPITATION =   0.000000    
                                RUNOFF =   0.000000                                    RUNOFF =   0.000000    
                CONSTANT CONCENTRATION =   0.000000                    CONSTANT CONCENTRATION =   0.000000    
                             MASS GAIN =   0.000000                                 MASS GAIN =   0.000000    
                                         -------------------                                    --------------
                              TOTAL IN =   5894.589                                  TOTAL IN =   19.75568    

                   STREAM ACCUMULATION =   1924.808                       STREAM ACCUMULATION =  0.9161308E-03
                        STREAM OUTFLOW =   3969.795                            STREAM OUTFLOW =   19.75476    
                          STREAM TO GW =   0.000000                              STREAM TO GW =   0.000000    
                CONSTANT CONCENTRATION =   0.000000                    CONSTANT CONCENTRATION =   0.000000    
                           EVAPORATION =   0.000000                               EVAPORATION =   0.000000    
                             MASS LOSS =   0.000000                                 MASS LOSS =   0.000000    
                                         -------------------                                    --------------
                             TOTAL OUT =   5894.604                                 TOTAL OUT =   19.75568    

                        NET (IN - OUT) = -0.1513672E-01                        NET (IN - OUT) = -0.3814697E-05
                 DISCREPANCY (PERCENT) = -0.2567897E-03                 DISCREPANCY (PERCENT) = -0.1930937E-04
                                              FLOW ERR (QIN-QOUT-DV) = -0.9536743E-06 [L3/T]




 >>>>>>>>>>>>>>>>>>>>>>>>>>>>>>>>>>>>>>>>>>>>>>>>>>>>>>>FOR COMPONENT NO. 01<<<<<<<<<<<<<<<<<<<<<<<<<<<<<<<<<<<<<<<<<<<<<<<<<<<<<<<


                                            -------------------------------------------
                                                      TRANSPORT STEP NO.  107
                                            -------------------------------------------

 TOTAL ELAPSED TIME SINCE BEGINNING OF SIMULATION =   60660.00    D   
 .....................................................................

                     CUMULATIVE MASS BUDGETS AT END OF TRANSPORT STEP  107, TIME STEP    1, STRESS PERIOD    3
                     -----------------------------------------------------------------------------------------

                                                             IN                           OUT
                                                      ----------------             ----------------
                               CONSTANT CONCENTRATION:    0.000000                    0.000000    
                                        CONSTANT HEAD:    757.1756                   -420.5025    
                                               STREAM:    0.000000                   -336.6773    
                               MASS STOR (FLOW MODEL):   0.5161509E-02              -0.6986623E-07
                                MASS STORAGE (SOLUTE):    0.000000                    0.000000    
                            ---------------------------------------------------------------------------
                                              [TOTAL]:    757.1808     KG            -757.1798     KG  

                                                          NET (IN - OUT):   0.9765625E-03
                                                   DISCREPANCY (PERCENT):   0.1289736E-03
     2 CALLS TO GCG PACKAGE FOR TRANSPORT TIME STEP   108 IN FLOW TIME STEP     1 STRESS PERIOD     3
      2 TOTAL ITERATIONS
  MAXIMUM CONCENTRATION CHANGES FOR EACH ITERATION:
  MAX. CHANGE LAYER,ROW,COL MAX. CHANGE LAYER,ROW,COL MAX. CHANGE LAYER,ROW,COL MAX. CHANGE LAYER,ROW,COL MAX. CHANGE LAYER,ROW,COL
 ------------------------------------------------------------------------------------------------------------------------------------
    0.000     (  1,  1,  1)   0.000     (  1,  1,  1)


                     STREAM MASS BUDGETS AT END OF TRANSPORT STEP  108, TIME STEP    1, STRESS PERIOD    3 FOR COMPONENT   1
                     -------------------------------------------------------------------------------------------------------

                                         CUMULATIVE MASS [M]                                     MASS FOR THIS TIME STEP [M]
                                         -------------------                                    --------------
                      STREAM DEPLETION =   1723.004                          STREAM DEPLETION =   10.10867    
                      INFLOW TO STREAM =   3853.341                          INFLOW TO STREAM =   8.325000    
                          GW TO STREAM =   337.6763                              GW TO STREAM =  0.9990391    
                         PRECIPITATION =   0.000000                             PRECIPITATION =   0.000000    
                                RUNOFF =   0.000000                                    RUNOFF =   0.000000    
                CONSTANT CONCENTRATION =   0.000000                    CONSTANT CONCENTRATION =   0.000000    
                             MASS GAIN =   0.000000                                 MASS GAIN =   0.000000    
                                         -------------------                                    --------------
                              TOTAL IN =   5914.021                                  TOTAL IN =   19.43271    

                   STREAM ACCUMULATION =   1924.809                       STREAM ACCUMULATION =  0.8744648E-03
                        STREAM OUTFLOW =   3989.227                            STREAM OUTFLOW =   19.43184    
                          STREAM TO GW =   0.000000                              STREAM TO GW =   0.000000    
                CONSTANT CONCENTRATION =   0.000000                    CONSTANT CONCENTRATION =   0.000000    
                           EVAPORATION =   0.000000                               EVAPORATION =   0.000000    
                             MASS LOSS =   0.000000                                 MASS LOSS =   0.000000    
                                         -------------------                                    --------------
                             TOTAL OUT =   5914.037                                 TOTAL OUT =   19.43272    

                        NET (IN - OUT) = -0.1513672E-01                        NET (IN - OUT) = -0.3814697E-05
                 DISCREPANCY (PERCENT) = -0.2559460E-03                 DISCREPANCY (PERCENT) = -0.1963028E-04
                                              FLOW ERR (QIN-QOUT-DV) = -0.9536743E-06 [L3/T]




 >>>>>>>>>>>>>>>>>>>>>>>>>>>>>>>>>>>>>>>>>>>>>>>>>>>>>>>FOR COMPONENT NO. 01<<<<<<<<<<<<<<<<<<<<<<<<<<<<<<<<<<<<<<<<<<<<<<<<<<<<<<<


                                            -------------------------------------------
                                                      TRANSPORT STEP NO.  108
                                            -------------------------------------------

 TOTAL ELAPSED TIME SINCE BEGINNING OF SIMULATION =   60840.00    D   
 .....................................................................

                     CUMULATIVE MASS BUDGETS AT END OF TRANSPORT STEP  108, TIME STEP    1, STRESS PERIOD    3
                     -----------------------------------------------------------------------------------------

                                                             IN                           OUT
                                                      ----------------             ----------------
                               CONSTANT CONCENTRATION:    0.000000                    0.000000    
                                        CONSTANT HEAD:    759.4224                   -421.7503    
                                               STREAM:    0.000000                   -337.6763    
                               MASS STOR (FLOW MODEL):   0.5161509E-02              -0.6986623E-07
                                MASS STORAGE (SOLUTE):    0.000000                    0.000000    
                            ---------------------------------------------------------------------------
                                              [TOTAL]:    759.4276     KG            -759.4266     KG  

                                                          NET (IN - OUT):   0.9765625E-03
                                                   DISCREPANCY (PERCENT):   0.1285920E-03
     2 CALLS TO GCG PACKAGE FOR TRANSPORT TIME STEP   109 IN FLOW TIME STEP     1 STRESS PERIOD     3
      2 TOTAL ITERATIONS
  MAXIMUM CONCENTRATION CHANGES FOR EACH ITERATION:
  MAX. CHANGE LAYER,ROW,COL MAX. CHANGE LAYER,ROW,COL MAX. CHANGE LAYER,ROW,COL MAX. CHANGE LAYER,ROW,COL MAX. CHANGE LAYER,ROW,COL
 ------------------------------------------------------------------------------------------------------------------------------------
    0.000     (  1,  1,  1)   0.000     (  1,  1,  1)


                     STREAM MASS BUDGETS AT END OF TRANSPORT STEP  109, TIME STEP    1, STRESS PERIOD    3 FOR COMPONENT   1
                     -------------------------------------------------------------------------------------------------------

                                         CUMULATIVE MASS [M]                                     MASS FOR THIS TIME STEP [M]
                                         -------------------                                    --------------
                      STREAM DEPLETION =   1732.788                          STREAM DEPLETION =   9.783297    
                      INFLOW TO STREAM =   3861.666                          INFLOW TO STREAM =   8.325000    
                          GW TO STREAM =   338.6754                              GW TO STREAM =  0.9990391    
                         PRECIPITATION =   0.000000                             PRECIPITATION =   0.000000    
                                RUNOFF =   0.000000                                    RUNOFF =   0.000000    
                CONSTANT CONCENTRATION =   0.000000                    CONSTANT CONCENTRATION =   0.000000    
                             MASS GAIN =   0.000000                                 MASS GAIN =   0.000000    
                                         -------------------                                    --------------
                              TOTAL IN =   5933.129                                  TOTAL IN =   19.10733    

                   STREAM ACCUMULATION =   1924.810                       STREAM ACCUMULATION =  0.8352447E-03
                        STREAM OUTFLOW =   4008.334                            STREAM OUTFLOW =   19.10650    
                          STREAM TO GW =   0.000000                              STREAM TO GW =   0.000000    
                CONSTANT CONCENTRATION =   0.000000                    CONSTANT CONCENTRATION =   0.000000    
                           EVAPORATION =   0.000000                               EVAPORATION =   0.000000    
                             MASS LOSS =   0.000000                                 MASS LOSS =   0.000000    
                                         -------------------                                    --------------
                             TOTAL OUT =   5933.144                                 TOTAL OUT =   19.10734    

                        NET (IN - OUT) = -0.1513672E-01                        NET (IN - OUT) = -0.5722046E-05
                 DISCREPANCY (PERCENT) = -0.2551217E-03                 DISCREPANCY (PERCENT) = -0.2994685E-04
                                              FLOW ERR (QIN-QOUT-DV) = -0.9536743E-06 [L3/T]




 >>>>>>>>>>>>>>>>>>>>>>>>>>>>>>>>>>>>>>>>>>>>>>>>>>>>>>>FOR COMPONENT NO. 01<<<<<<<<<<<<<<<<<<<<<<<<<<<<<<<<<<<<<<<<<<<<<<<<<<<<<<<


                                            -------------------------------------------
                                                      TRANSPORT STEP NO.  109
                                            -------------------------------------------

 TOTAL ELAPSED TIME SINCE BEGINNING OF SIMULATION =   61020.00    D   
 .....................................................................

                     CUMULATIVE MASS BUDGETS AT END OF TRANSPORT STEP  109, TIME STEP    1, STRESS PERIOD    3
                     -----------------------------------------------------------------------------------------

                                                             IN                           OUT
                                                      ----------------             ----------------
                               CONSTANT CONCENTRATION:    0.000000                    0.000000    
                                        CONSTANT HEAD:    761.6693                   -422.9981    
                                               STREAM:    0.000000                   -338.6754    
                               MASS STOR (FLOW MODEL):   0.5161509E-02              -0.6986623E-07
                                MASS STORAGE (SOLUTE):    0.000000                    0.000000    
                            ---------------------------------------------------------------------------
                                              [TOTAL]:    761.6744     KG            -761.6735     KG  

                                                          NET (IN - OUT):   0.9765625E-03
                                                   DISCREPANCY (PERCENT):   0.1282127E-03
     2 CALLS TO GCG PACKAGE FOR TRANSPORT TIME STEP   110 IN FLOW TIME STEP     1 STRESS PERIOD     3
      2 TOTAL ITERATIONS
  MAXIMUM CONCENTRATION CHANGES FOR EACH ITERATION:
  MAX. CHANGE LAYER,ROW,COL MAX. CHANGE LAYER,ROW,COL MAX. CHANGE LAYER,ROW,COL MAX. CHANGE LAYER,ROW,COL MAX. CHANGE LAYER,ROW,COL
 ------------------------------------------------------------------------------------------------------------------------------------
    0.000     (  1,  1,  1)   0.000     (  1,  1,  1)


                     STREAM MASS BUDGETS AT END OF TRANSPORT STEP  110, TIME STEP    1, STRESS PERIOD    3 FOR COMPONENT   1
                     -------------------------------------------------------------------------------------------------------

                                         CUMULATIVE MASS [M]                                     MASS FOR THIS TIME STEP [M]
                                         -------------------                                    --------------
                      STREAM DEPLETION =   1742.244                          STREAM DEPLETION =   9.456542    
                      INFLOW TO STREAM =   3869.990                          INFLOW TO STREAM =   8.325000    
                          GW TO STREAM =   339.6744                              GW TO STREAM =  0.9990391    
                         PRECIPITATION =   0.000000                             PRECIPITATION =   0.000000    
                                RUNOFF =   0.000000                                    RUNOFF =   0.000000    
                CONSTANT CONCENTRATION =   0.000000                    CONSTANT CONCENTRATION =   0.000000    
                             MASS GAIN =   0.000000                                 MASS GAIN =   0.000000    
                                         -------------------                                    --------------
                              TOTAL IN =   5951.909                                  TOTAL IN =   18.78058    

                   STREAM ACCUMULATION =   1924.811                       STREAM ACCUMULATION =  0.7977439E-03
                        STREAM OUTFLOW =   4027.114                            STREAM OUTFLOW =   18.77979    
                          STREAM TO GW =   0.000000                              STREAM TO GW =   0.000000    
                CONSTANT CONCENTRATION =   0.000000                    CONSTANT CONCENTRATION =   0.000000    
                           EVAPORATION =   0.000000                               EVAPORATION =   0.000000    
                             MASS LOSS =   0.000000                                 MASS LOSS =   0.000000    
                                         -------------------                                    --------------
                             TOTAL OUT =   5951.925                                 TOTAL OUT =   18.78058    

                        NET (IN - OUT) = -0.1562500E-01                        NET (IN - OUT) = -0.1907349E-05
                 DISCREPANCY (PERCENT) = -0.2625205E-03                 DISCREPANCY (PERCENT) = -0.1015596E-04
                                              FLOW ERR (QIN-QOUT-DV) = -0.9536743E-06 [L3/T]




 >>>>>>>>>>>>>>>>>>>>>>>>>>>>>>>>>>>>>>>>>>>>>>>>>>>>>>>FOR COMPONENT NO. 01<<<<<<<<<<<<<<<<<<<<<<<<<<<<<<<<<<<<<<<<<<<<<<<<<<<<<<<


                                            -------------------------------------------
                                                      TRANSPORT STEP NO.  110
                                            -------------------------------------------

 TOTAL ELAPSED TIME SINCE BEGINNING OF SIMULATION =   61200.00    D   
 .....................................................................

                     CUMULATIVE MASS BUDGETS AT END OF TRANSPORT STEP  110, TIME STEP    1, STRESS PERIOD    3
                     -----------------------------------------------------------------------------------------

                                                             IN                           OUT
                                                      ----------------             ----------------
                               CONSTANT CONCENTRATION:    0.000000                    0.000000    
                                        CONSTANT HEAD:    763.9161                   -424.2458    
                                               STREAM:    0.000000                   -339.6744    
                               MASS STOR (FLOW MODEL):   0.5161509E-02              -0.6986623E-07
                                MASS STORAGE (SOLUTE):    0.000000                    0.000000    
                            ---------------------------------------------------------------------------
                                              [TOTAL]:    763.9213     KG            -763.9203     KG  

                                                          NET (IN - OUT):   0.9765625E-03
                                                   DISCREPANCY (PERCENT):   0.1278356E-03
     2 CALLS TO GCG PACKAGE FOR TRANSPORT TIME STEP   111 IN FLOW TIME STEP     1 STRESS PERIOD     3
      2 TOTAL ITERATIONS
  MAXIMUM CONCENTRATION CHANGES FOR EACH ITERATION:
  MAX. CHANGE LAYER,ROW,COL MAX. CHANGE LAYER,ROW,COL MAX. CHANGE LAYER,ROW,COL MAX. CHANGE LAYER,ROW,COL MAX. CHANGE LAYER,ROW,COL
 ------------------------------------------------------------------------------------------------------------------------------------
    0.000     (  1,  1,  1)   0.000     (  1,  1,  1)


                     STREAM MASS BUDGETS AT END OF TRANSPORT STEP  111, TIME STEP    1, STRESS PERIOD    3 FOR COMPONENT   1
                     -------------------------------------------------------------------------------------------------------

                                         CUMULATIVE MASS [M]                                     MASS FOR THIS TIME STEP [M]
                                         -------------------                                    --------------
                      STREAM DEPLETION =   1751.374                          STREAM DEPLETION =   9.129407    
                      INFLOW TO STREAM =   3878.315                          INFLOW TO STREAM =   8.325000    
                          GW TO STREAM =   340.6735                              GW TO STREAM =  0.9990391    
                         PRECIPITATION =   0.000000                             PRECIPITATION =   0.000000    
                                RUNOFF =   0.000000                                    RUNOFF =   0.000000    
                CONSTANT CONCENTRATION =   0.000000                    CONSTANT CONCENTRATION =   0.000000    
                             MASS GAIN =   0.000000                                 MASS GAIN =   0.000000    
                                         -------------------                                    --------------
                              TOTAL IN =   5970.362                                  TOTAL IN =   18.45345    

                   STREAM ACCUMULATION =   1924.812                       STREAM ACCUMULATION =  0.7618831E-03
                        STREAM OUTFLOW =   4045.566                            STREAM OUTFLOW =   18.45269    
                          STREAM TO GW =   0.000000                              STREAM TO GW =   0.000000    
                CONSTANT CONCENTRATION =   0.000000                    CONSTANT CONCENTRATION =   0.000000    
                           EVAPORATION =   0.000000                               EVAPORATION =   0.000000    
                             MASS LOSS =   0.000000                                 MASS LOSS =   0.000000    
                                         -------------------                                    --------------
                             TOTAL OUT =   5970.378                                 TOTAL OUT =   18.45345    

                        NET (IN - OUT) = -0.1562500E-01                        NET (IN - OUT) = -0.1907349E-05
                 DISCREPANCY (PERCENT) = -0.2617091E-03                 DISCREPANCY (PERCENT) = -0.1033600E-04
                                              FLOW ERR (QIN-QOUT-DV) = -0.9536743E-06 [L3/T]




 >>>>>>>>>>>>>>>>>>>>>>>>>>>>>>>>>>>>>>>>>>>>>>>>>>>>>>>FOR COMPONENT NO. 01<<<<<<<<<<<<<<<<<<<<<<<<<<<<<<<<<<<<<<<<<<<<<<<<<<<<<<<


                                            -------------------------------------------
                                                      TRANSPORT STEP NO.  111
                                            -------------------------------------------

 TOTAL ELAPSED TIME SINCE BEGINNING OF SIMULATION =   61380.00    D   
 .....................................................................

                     CUMULATIVE MASS BUDGETS AT END OF TRANSPORT STEP  111, TIME STEP    1, STRESS PERIOD    3
                     -----------------------------------------------------------------------------------------

                                                             IN                           OUT
                                                      ----------------             ----------------
                               CONSTANT CONCENTRATION:    0.000000                    0.000000    
                                        CONSTANT HEAD:    766.1629                   -425.4936    
                                               STREAM:    0.000000                   -340.6735    
                               MASS STOR (FLOW MODEL):   0.5161509E-02              -0.6986623E-07
                                MASS STORAGE (SOLUTE):    0.000000                    0.000000    
                            ---------------------------------------------------------------------------
                                              [TOTAL]:    766.1681     KG            -766.1671     KG  

                                                          NET (IN - OUT):   0.9765625E-03
                                                   DISCREPANCY (PERCENT):   0.1274607E-03
     2 CALLS TO GCG PACKAGE FOR TRANSPORT TIME STEP   112 IN FLOW TIME STEP     1 STRESS PERIOD     3
      2 TOTAL ITERATIONS
  MAXIMUM CONCENTRATION CHANGES FOR EACH ITERATION:
  MAX. CHANGE LAYER,ROW,COL MAX. CHANGE LAYER,ROW,COL MAX. CHANGE LAYER,ROW,COL MAX. CHANGE LAYER,ROW,COL MAX. CHANGE LAYER,ROW,COL
 ------------------------------------------------------------------------------------------------------------------------------------
    0.000     (  1,  1,  1)   0.000     (  1,  1,  1)


                     STREAM MASS BUDGETS AT END OF TRANSPORT STEP  112, TIME STEP    1, STRESS PERIOD    3 FOR COMPONENT   1
                     -------------------------------------------------------------------------------------------------------

                                         CUMULATIVE MASS [M]                                     MASS FOR THIS TIME STEP [M]
                                         -------------------                                    --------------
                      STREAM DEPLETION =   1760.177                          STREAM DEPLETION =   8.802855    
                      INFLOW TO STREAM =   3886.640                          INFLOW TO STREAM =   8.325000    
                          GW TO STREAM =   341.6725                              GW TO STREAM =  0.9990391    
                         PRECIPITATION =   0.000000                             PRECIPITATION =   0.000000    
                                RUNOFF =   0.000000                                    RUNOFF =   0.000000    
                CONSTANT CONCENTRATION =   0.000000                    CONSTANT CONCENTRATION =   0.000000    
                             MASS GAIN =   0.000000                                 MASS GAIN =   0.000000    
                                         -------------------                                    --------------
                              TOTAL IN =   5988.489                                  TOTAL IN =   18.12689    

                   STREAM ACCUMULATION =   1924.812                       STREAM ACCUMULATION =  0.7277593E-03
                        STREAM OUTFLOW =   4063.692                            STREAM OUTFLOW =   18.12617    
                          STREAM TO GW =   0.000000                              STREAM TO GW =   0.000000    
                CONSTANT CONCENTRATION =   0.000000                    CONSTANT CONCENTRATION =   0.000000    
                           EVAPORATION =   0.000000                               EVAPORATION =   0.000000    
                             MASS LOSS =   0.000000                                 MASS LOSS =   0.000000    
                                         -------------------                                    --------------
                             TOTAL OUT =   5988.505                                 TOTAL OUT =   18.12690    

                        NET (IN - OUT) = -0.1562500E-01                        NET (IN - OUT) = -0.3814697E-05
                 DISCREPANCY (PERCENT) = -0.2609169E-03                 DISCREPANCY (PERCENT) = -0.2104441E-04
                                              FLOW ERR (QIN-QOUT-DV) = -0.9536743E-06 [L3/T]




 >>>>>>>>>>>>>>>>>>>>>>>>>>>>>>>>>>>>>>>>>>>>>>>>>>>>>>>FOR COMPONENT NO. 01<<<<<<<<<<<<<<<<<<<<<<<<<<<<<<<<<<<<<<<<<<<<<<<<<<<<<<<


                                            -------------------------------------------
                                                      TRANSPORT STEP NO.  112
                                            -------------------------------------------

 TOTAL ELAPSED TIME SINCE BEGINNING OF SIMULATION =   61560.00    D   
 .....................................................................

                     CUMULATIVE MASS BUDGETS AT END OF TRANSPORT STEP  112, TIME STEP    1, STRESS PERIOD    3
                     -----------------------------------------------------------------------------------------

                                                             IN                           OUT
                                                      ----------------             ----------------
                               CONSTANT CONCENTRATION:    0.000000                    0.000000    
                                        CONSTANT HEAD:    768.4097                   -426.7414    
                                               STREAM:    0.000000                   -341.6725    
                               MASS STOR (FLOW MODEL):   0.5161509E-02              -0.6986623E-07
                                MASS STORAGE (SOLUTE):    0.000000                    0.000000    
                            ---------------------------------------------------------------------------
                                              [TOTAL]:    768.4149     KG            -768.4139     KG  

                                                          NET (IN - OUT):   0.9765625E-03
                                                   DISCREPANCY (PERCENT):   0.1270880E-03
     2 CALLS TO GCG PACKAGE FOR TRANSPORT TIME STEP   113 IN FLOW TIME STEP     1 STRESS PERIOD     3
      2 TOTAL ITERATIONS
  MAXIMUM CONCENTRATION CHANGES FOR EACH ITERATION:
  MAX. CHANGE LAYER,ROW,COL MAX. CHANGE LAYER,ROW,COL MAX. CHANGE LAYER,ROW,COL MAX. CHANGE LAYER,ROW,COL MAX. CHANGE LAYER,ROW,COL
 ------------------------------------------------------------------------------------------------------------------------------------
    0.000     (  1,  1,  1)   0.000     (  1,  1,  1)


                     STREAM MASS BUDGETS AT END OF TRANSPORT STEP  113, TIME STEP    1, STRESS PERIOD    3 FOR COMPONENT   1
                     -------------------------------------------------------------------------------------------------------

                                         CUMULATIVE MASS [M]                                     MASS FOR THIS TIME STEP [M]
                                         -------------------                                    --------------
                      STREAM DEPLETION =   1768.654                          STREAM DEPLETION =   8.477795    
                      INFLOW TO STREAM =   3894.965                          INFLOW TO STREAM =   8.325000    
                          GW TO STREAM =   342.6716                              GW TO STREAM =  0.9990391    
                         PRECIPITATION =   0.000000                             PRECIPITATION =   0.000000    
                                RUNOFF =   0.000000                                    RUNOFF =   0.000000    
                CONSTANT CONCENTRATION =   0.000000                    CONSTANT CONCENTRATION =   0.000000    
                             MASS GAIN =   0.000000                                 MASS GAIN =   0.000000    
                                         -------------------                                    --------------
                              TOTAL IN =   6006.291                                  TOTAL IN =   17.80183    

                   STREAM ACCUMULATION =   1924.813                       STREAM ACCUMULATION =  0.6952122E-03
                        STREAM OUTFLOW =   4081.493                            STREAM OUTFLOW =   17.80114    
                          STREAM TO GW =   0.000000                              STREAM TO GW =   0.000000    
                CONSTANT CONCENTRATION =   0.000000                    CONSTANT CONCENTRATION =   0.000000    
                           EVAPORATION =   0.000000                               EVAPORATION =   0.000000    
                             MASS LOSS =   0.000000                                 MASS LOSS =   0.000000    
                                         -------------------                                    --------------
                             TOTAL OUT =   6006.307                                 TOTAL OUT =   17.80184    

                        NET (IN - OUT) = -0.1562500E-01                        NET (IN - OUT) = -0.3814697E-05
                 DISCREPANCY (PERCENT) = -0.2601436E-03                 DISCREPANCY (PERCENT) = -0.2142867E-04
                                              FLOW ERR (QIN-QOUT-DV) = -0.9536743E-06 [L3/T]




 >>>>>>>>>>>>>>>>>>>>>>>>>>>>>>>>>>>>>>>>>>>>>>>>>>>>>>>FOR COMPONENT NO. 01<<<<<<<<<<<<<<<<<<<<<<<<<<<<<<<<<<<<<<<<<<<<<<<<<<<<<<<


                                            -------------------------------------------
                                                      TRANSPORT STEP NO.  113
                                            -------------------------------------------

 TOTAL ELAPSED TIME SINCE BEGINNING OF SIMULATION =   61740.00    D   
 .....................................................................

                     CUMULATIVE MASS BUDGETS AT END OF TRANSPORT STEP  113, TIME STEP    1, STRESS PERIOD    3
                     -----------------------------------------------------------------------------------------

                                                             IN                           OUT
                                                      ----------------             ----------------
                               CONSTANT CONCENTRATION:    0.000000                    0.000000    
                                        CONSTANT HEAD:    770.6566                   -427.9892    
                                               STREAM:    0.000000                   -342.6716    
                               MASS STOR (FLOW MODEL):   0.5161509E-02              -0.6986623E-07
                                MASS STORAGE (SOLUTE):    0.000000                    0.000000    
                            ---------------------------------------------------------------------------
                                              [TOTAL]:    770.6617     KG            -770.6608     KG  

                                                          NET (IN - OUT):   0.9765625E-03
                                                   DISCREPANCY (PERCENT):   0.1267175E-03
     2 CALLS TO GCG PACKAGE FOR TRANSPORT TIME STEP   114 IN FLOW TIME STEP     1 STRESS PERIOD     3
      2 TOTAL ITERATIONS
  MAXIMUM CONCENTRATION CHANGES FOR EACH ITERATION:
  MAX. CHANGE LAYER,ROW,COL MAX. CHANGE LAYER,ROW,COL MAX. CHANGE LAYER,ROW,COL MAX. CHANGE LAYER,ROW,COL MAX. CHANGE LAYER,ROW,COL
 ------------------------------------------------------------------------------------------------------------------------------------
    0.000     (  1,  1,  1)   0.000     (  1,  1,  1)


                     STREAM MASS BUDGETS AT END OF TRANSPORT STEP  114, TIME STEP    1, STRESS PERIOD    3 FOR COMPONENT   1
                     -------------------------------------------------------------------------------------------------------

                                         CUMULATIVE MASS [M]                                     MASS FOR THIS TIME STEP [M]
                                         -------------------                                    --------------
                      STREAM DEPLETION =   1776.809                          STREAM DEPLETION =   8.155095    
                      INFLOW TO STREAM =   3903.290                          INFLOW TO STREAM =   8.325000    
                          GW TO STREAM =   343.6707                              GW TO STREAM =  0.9990391    
                         PRECIPITATION =   0.000000                             PRECIPITATION =   0.000000    
                                RUNOFF =   0.000000                                    RUNOFF =   0.000000    
                CONSTANT CONCENTRATION =   0.000000                    CONSTANT CONCENTRATION =   0.000000    
                             MASS GAIN =   0.000000                                 MASS GAIN =   0.000000    
                                         -------------------                                    --------------
                              TOTAL IN =   6023.771                                  TOTAL IN =   17.47913    

                   STREAM ACCUMULATION =   1924.814                       STREAM ACCUMULATION =  0.6640821E-03
                        STREAM OUTFLOW =   4098.972                            STREAM OUTFLOW =   17.47847    
                          STREAM TO GW =   0.000000                              STREAM TO GW =   0.000000    
                CONSTANT CONCENTRATION =   0.000000                    CONSTANT CONCENTRATION =   0.000000    
                           EVAPORATION =   0.000000                               EVAPORATION =   0.000000    
                             MASS LOSS =   0.000000                                 MASS LOSS =   0.000000    
                                         -------------------                                    --------------
                             TOTAL OUT =   6023.786                                 TOTAL OUT =   17.47914    

                        NET (IN - OUT) = -0.1513672E-01                        NET (IN - OUT) = -0.1907349E-05
                 DISCREPANCY (PERCENT) = -0.2512828E-03                 DISCREPANCY (PERCENT) = -0.1091215E-04
                                              FLOW ERR (QIN-QOUT-DV) = -0.9536743E-06 [L3/T]




 >>>>>>>>>>>>>>>>>>>>>>>>>>>>>>>>>>>>>>>>>>>>>>>>>>>>>>>FOR COMPONENT NO. 01<<<<<<<<<<<<<<<<<<<<<<<<<<<<<<<<<<<<<<<<<<<<<<<<<<<<<<<


                                            -------------------------------------------
                                                      TRANSPORT STEP NO.  114
                                            -------------------------------------------

 TOTAL ELAPSED TIME SINCE BEGINNING OF SIMULATION =   61920.00    D   
 .....................................................................

                     CUMULATIVE MASS BUDGETS AT END OF TRANSPORT STEP  114, TIME STEP    1, STRESS PERIOD    3
                     -----------------------------------------------------------------------------------------

                                                             IN                           OUT
                                                      ----------------             ----------------
                               CONSTANT CONCENTRATION:    0.000000                    0.000000    
                                        CONSTANT HEAD:    772.9034                   -429.2369    
                                               STREAM:    0.000000                   -343.6707    
                               MASS STOR (FLOW MODEL):   0.5161509E-02              -0.6986623E-07
                                MASS STORAGE (SOLUTE):    0.000000                    0.000000    
                            ---------------------------------------------------------------------------
                                              [TOTAL]:    772.9086     KG            -772.9076     KG  

                                                          NET (IN - OUT):   0.9765625E-03
                                                   DISCREPANCY (PERCENT):   0.1263491E-03
     2 CALLS TO GCG PACKAGE FOR TRANSPORT TIME STEP   115 IN FLOW TIME STEP     1 STRESS PERIOD     3
      2 TOTAL ITERATIONS
  MAXIMUM CONCENTRATION CHANGES FOR EACH ITERATION:
  MAX. CHANGE LAYER,ROW,COL MAX. CHANGE LAYER,ROW,COL MAX. CHANGE LAYER,ROW,COL MAX. CHANGE LAYER,ROW,COL MAX. CHANGE LAYER,ROW,COL
 ------------------------------------------------------------------------------------------------------------------------------------
    0.000     (  1,  1,  1)   0.000     (  1,  1,  1)


                     STREAM MASS BUDGETS AT END OF TRANSPORT STEP  115, TIME STEP    1, STRESS PERIOD    3 FOR COMPONENT   1
                     -------------------------------------------------------------------------------------------------------

                                         CUMULATIVE MASS [M]                                     MASS FOR THIS TIME STEP [M]
                                         -------------------                                    --------------
                      STREAM DEPLETION =   1784.645                          STREAM DEPLETION =   7.835554    
                      INFLOW TO STREAM =   3911.615                          INFLOW TO STREAM =   8.325000    
                          GW TO STREAM =   344.6697                              GW TO STREAM =  0.9990391    
                         PRECIPITATION =   0.000000                             PRECIPITATION =   0.000000    
                                RUNOFF =   0.000000                                    RUNOFF =   0.000000    
                CONSTANT CONCENTRATION =   0.000000                    CONSTANT CONCENTRATION =   0.000000    
                             MASS GAIN =   0.000000                                 MASS GAIN =   0.000000    
                                         -------------------                                    --------------
                              TOTAL IN =   6040.930                                  TOTAL IN =   17.15959    

                   STREAM ACCUMULATION =   1924.814                       STREAM ACCUMULATION =  0.6362083E-03
                        STREAM OUTFLOW =   4116.131                            STREAM OUTFLOW =   17.15896    
                          STREAM TO GW =   0.000000                              STREAM TO GW =   0.000000    
                CONSTANT CONCENTRATION =   0.000000                    CONSTANT CONCENTRATION =   0.000000    
                           EVAPORATION =   0.000000                               EVAPORATION =   0.000000    
                             MASS LOSS =   0.000000                                 MASS LOSS =   0.000000    
                                         -------------------                                    --------------
                             TOTAL OUT =   6040.945                                 TOTAL OUT =   17.15960    

                        NET (IN - OUT) = -0.1562500E-01                        NET (IN - OUT) = -0.7629395E-05
                 DISCREPANCY (PERCENT) = -0.2586519E-03                 DISCREPANCY (PERCENT) = -0.4446139E-04
                                              FLOW ERR (QIN-QOUT-DV) = -0.9536743E-06 [L3/T]




 >>>>>>>>>>>>>>>>>>>>>>>>>>>>>>>>>>>>>>>>>>>>>>>>>>>>>>>FOR COMPONENT NO. 01<<<<<<<<<<<<<<<<<<<<<<<<<<<<<<<<<<<<<<<<<<<<<<<<<<<<<<<


                                            -------------------------------------------
                                                      TRANSPORT STEP NO.  115
                                            -------------------------------------------

 TOTAL ELAPSED TIME SINCE BEGINNING OF SIMULATION =   62100.00    D   
 .....................................................................

                     CUMULATIVE MASS BUDGETS AT END OF TRANSPORT STEP  115, TIME STEP    1, STRESS PERIOD    3
                     -----------------------------------------------------------------------------------------

                                                             IN                           OUT
                                                      ----------------             ----------------
                               CONSTANT CONCENTRATION:    0.000000                    0.000000    
                                        CONSTANT HEAD:    775.1502                   -430.4847    
                                               STREAM:    0.000000                   -344.6697    
                               MASS STOR (FLOW MODEL):   0.5161509E-02              -0.6986623E-07
                                MASS STORAGE (SOLUTE):    0.000000                    0.000000    
                            ---------------------------------------------------------------------------
                                              [TOTAL]:    775.1554     KG            -775.1544     KG  

                                                          NET (IN - OUT):   0.9765625E-03
                                                   DISCREPANCY (PERCENT):   0.1259829E-03
     2 CALLS TO GCG PACKAGE FOR TRANSPORT TIME STEP   116 IN FLOW TIME STEP     1 STRESS PERIOD     3
      2 TOTAL ITERATIONS
  MAXIMUM CONCENTRATION CHANGES FOR EACH ITERATION:
  MAX. CHANGE LAYER,ROW,COL MAX. CHANGE LAYER,ROW,COL MAX. CHANGE LAYER,ROW,COL MAX. CHANGE LAYER,ROW,COL MAX. CHANGE LAYER,ROW,COL
 ------------------------------------------------------------------------------------------------------------------------------------
    0.000     (  1,  1,  1)   0.000     (  1,  1,  1)


                     STREAM MASS BUDGETS AT END OF TRANSPORT STEP  116, TIME STEP    1, STRESS PERIOD    3 FOR COMPONENT   1
                     -------------------------------------------------------------------------------------------------------

                                         CUMULATIVE MASS [M]                                     MASS FOR THIS TIME STEP [M]
                                         -------------------                                    --------------
                      STREAM DEPLETION =   1792.165                          STREAM DEPLETION =   7.519933    
                      INFLOW TO STREAM =   3919.940                          INFLOW TO STREAM =   8.325000    
                          GW TO STREAM =   345.6688                              GW TO STREAM =  0.9990391    
                         PRECIPITATION =   0.000000                             PRECIPITATION =   0.000000    
                                RUNOFF =   0.000000                                    RUNOFF =   0.000000    
                CONSTANT CONCENTRATION =   0.000000                    CONSTANT CONCENTRATION =   0.000000    
                             MASS GAIN =   0.000000                                 MASS GAIN =   0.000000    
                                         -------------------                                    --------------
                              TOTAL IN =   6057.774                                  TOTAL IN =   16.84397    

                   STREAM ACCUMULATION =   1924.815                       STREAM ACCUMULATION =  0.6098786E-03
                        STREAM OUTFLOW =   4132.974                            STREAM OUTFLOW =   16.84336    
                          STREAM TO GW =   0.000000                              STREAM TO GW =   0.000000    
                CONSTANT CONCENTRATION =   0.000000                    CONSTANT CONCENTRATION =   0.000000    
                           EVAPORATION =   0.000000                               EVAPORATION =   0.000000    
                             MASS LOSS =   0.000000                                 MASS LOSS =   0.000000    
                                         -------------------                                    --------------
                             TOTAL OUT =   6057.789                                 TOTAL OUT =   16.84397    

                        NET (IN - OUT) = -0.1513672E-01                        NET (IN - OUT) = -0.1907349E-05
                 DISCREPANCY (PERCENT) = -0.2498723E-03                 DISCREPANCY (PERCENT) = -0.1132363E-04
                                              FLOW ERR (QIN-QOUT-DV) = -0.9536743E-06 [L3/T]




 >>>>>>>>>>>>>>>>>>>>>>>>>>>>>>>>>>>>>>>>>>>>>>>>>>>>>>>FOR COMPONENT NO. 01<<<<<<<<<<<<<<<<<<<<<<<<<<<<<<<<<<<<<<<<<<<<<<<<<<<<<<<


                                            -------------------------------------------
                                                      TRANSPORT STEP NO.  116
                                            -------------------------------------------

 TOTAL ELAPSED TIME SINCE BEGINNING OF SIMULATION =   62280.00    D   
 .....................................................................

                     CUMULATIVE MASS BUDGETS AT END OF TRANSPORT STEP  116, TIME STEP    1, STRESS PERIOD    3
                     -----------------------------------------------------------------------------------------

                                                             IN                           OUT
                                                      ----------------             ----------------
                               CONSTANT CONCENTRATION:    0.000000                    0.000000    
                                        CONSTANT HEAD:    777.3970                   -431.7325    
                                               STREAM:    0.000000                   -345.6688    
                               MASS STOR (FLOW MODEL):   0.5161509E-02              -0.6986623E-07
                                MASS STORAGE (SOLUTE):    0.000000                    0.000000    
                            ---------------------------------------------------------------------------
                                              [TOTAL]:    777.4022     KG            -777.4012     KG  

                                                          NET (IN - OUT):   0.9765625E-03
                                                   DISCREPANCY (PERCENT):   0.1256188E-03
     2 CALLS TO GCG PACKAGE FOR TRANSPORT TIME STEP   117 IN FLOW TIME STEP     1 STRESS PERIOD     3
      2 TOTAL ITERATIONS
  MAXIMUM CONCENTRATION CHANGES FOR EACH ITERATION:
  MAX. CHANGE LAYER,ROW,COL MAX. CHANGE LAYER,ROW,COL MAX. CHANGE LAYER,ROW,COL MAX. CHANGE LAYER,ROW,COL MAX. CHANGE LAYER,ROW,COL
 ------------------------------------------------------------------------------------------------------------------------------------
    0.000     (  1,  1,  1)   0.000     (  1,  1,  1)


                     STREAM MASS BUDGETS AT END OF TRANSPORT STEP  117, TIME STEP    1, STRESS PERIOD    3 FOR COMPONENT   1
                     -------------------------------------------------------------------------------------------------------

                                         CUMULATIVE MASS [M]                                     MASS FOR THIS TIME STEP [M]
                                         -------------------                                    --------------
                      STREAM DEPLETION =   1799.374                          STREAM DEPLETION =   7.208909    
                      INFLOW TO STREAM =   3928.265                          INFLOW TO STREAM =   8.325000    
                          GW TO STREAM =   346.6678                              GW TO STREAM =  0.9990391    
                         PRECIPITATION =   0.000000                             PRECIPITATION =   0.000000    
                                RUNOFF =   0.000000                                    RUNOFF =   0.000000    
                CONSTANT CONCENTRATION =   0.000000                    CONSTANT CONCENTRATION =   0.000000    
                             MASS GAIN =   0.000000                                 MASS GAIN =   0.000000    
                                         -------------------                                    --------------
                              TOTAL IN =   6074.307                                  TOTAL IN =   16.53295    

                   STREAM ACCUMULATION =   1924.816                       STREAM ACCUMULATION =  0.5846089E-03
                        STREAM OUTFLOW =   4149.506                            STREAM OUTFLOW =   16.53237    
                          STREAM TO GW =   0.000000                              STREAM TO GW =   0.000000    
                CONSTANT CONCENTRATION =   0.000000                    CONSTANT CONCENTRATION =   0.000000    
                           EVAPORATION =   0.000000                               EVAPORATION =   0.000000    
                             MASS LOSS =   0.000000                                 MASS LOSS =   0.000000    
                                         -------------------                                    --------------
                             TOTAL OUT =   6074.322                                 TOTAL OUT =   16.53295    

                        NET (IN - OUT) = -0.1562500E-01                        NET (IN - OUT) = -0.3814697E-05
                 DISCREPANCY (PERCENT) = -0.2572307E-03                 DISCREPANCY (PERCENT) = -0.2307330E-04
                                              FLOW ERR (QIN-QOUT-DV) = -0.9536743E-06 [L3/T]




 >>>>>>>>>>>>>>>>>>>>>>>>>>>>>>>>>>>>>>>>>>>>>>>>>>>>>>>FOR COMPONENT NO. 01<<<<<<<<<<<<<<<<<<<<<<<<<<<<<<<<<<<<<<<<<<<<<<<<<<<<<<<


                                            -------------------------------------------
                                                      TRANSPORT STEP NO.  117
                                            -------------------------------------------

 TOTAL ELAPSED TIME SINCE BEGINNING OF SIMULATION =   62460.00    D   
 .....................................................................

                     CUMULATIVE MASS BUDGETS AT END OF TRANSPORT STEP  117, TIME STEP    1, STRESS PERIOD    3
                     -----------------------------------------------------------------------------------------

                                                             IN                           OUT
                                                      ----------------             ----------------
                               CONSTANT CONCENTRATION:    0.000000                    0.000000    
                                        CONSTANT HEAD:    779.6439                   -432.9803    
                                               STREAM:    0.000000                   -346.6678    
                               MASS STOR (FLOW MODEL):   0.5161509E-02              -0.6986623E-07
                                MASS STORAGE (SOLUTE):    0.000000                    0.000000    
                            ---------------------------------------------------------------------------
                                              [TOTAL]:    779.6490     KG            -779.6481     KG  

                                                          NET (IN - OUT):   0.9765625E-03
                                                   DISCREPANCY (PERCENT):   0.1252568E-03
     2 CALLS TO GCG PACKAGE FOR TRANSPORT TIME STEP   118 IN FLOW TIME STEP     1 STRESS PERIOD     3
      2 TOTAL ITERATIONS
  MAXIMUM CONCENTRATION CHANGES FOR EACH ITERATION:
  MAX. CHANGE LAYER,ROW,COL MAX. CHANGE LAYER,ROW,COL MAX. CHANGE LAYER,ROW,COL MAX. CHANGE LAYER,ROW,COL MAX. CHANGE LAYER,ROW,COL
 ------------------------------------------------------------------------------------------------------------------------------------
    0.000     (  1,  1,  1)   0.000     (  1,  1,  1)


                     STREAM MASS BUDGETS AT END OF TRANSPORT STEP  118, TIME STEP    1, STRESS PERIOD    3 FOR COMPONENT   1
                     -------------------------------------------------------------------------------------------------------

                                         CUMULATIVE MASS [M]                                     MASS FOR THIS TIME STEP [M]
                                         -------------------                                    --------------
                      STREAM DEPLETION =   1806.277                          STREAM DEPLETION =   6.903123    
                      INFLOW TO STREAM =   3936.590                          INFLOW TO STREAM =   8.325000    
                          GW TO STREAM =   347.6669                              GW TO STREAM =  0.9990391    
                         PRECIPITATION =   0.000000                             PRECIPITATION =   0.000000    
                                RUNOFF =   0.000000                                    RUNOFF =   0.000000    
                CONSTANT CONCENTRATION =   0.000000                    CONSTANT CONCENTRATION =   0.000000    
                             MASS GAIN =   0.000000                                 MASS GAIN =   0.000000    
                                         -------------------                                    --------------
                              TOTAL IN =   6090.534                                  TOTAL IN =   16.22716    

                   STREAM ACCUMULATION =   1924.816                       STREAM ACCUMULATION =  0.5603578E-03
                        STREAM OUTFLOW =   4165.733                            STREAM OUTFLOW =   16.22660    
                          STREAM TO GW =   0.000000                              STREAM TO GW =   0.000000    
                CONSTANT CONCENTRATION =   0.000000                    CONSTANT CONCENTRATION =   0.000000    
                           EVAPORATION =   0.000000                               EVAPORATION =   0.000000    
                             MASS LOSS =   0.000000                                 MASS LOSS =   0.000000    
                                         -------------------                                    --------------
                             TOTAL OUT =   6090.549                                 TOTAL OUT =   16.22717    

                        NET (IN - OUT) = -0.1513672E-01                        NET (IN - OUT) = -0.3814697E-05
                 DISCREPANCY (PERCENT) = -0.2485283E-03                 DISCREPANCY (PERCENT) = -0.2350810E-04
                                              FLOW ERR (QIN-QOUT-DV) = -0.9536743E-06 [L3/T]




 >>>>>>>>>>>>>>>>>>>>>>>>>>>>>>>>>>>>>>>>>>>>>>>>>>>>>>>FOR COMPONENT NO. 01<<<<<<<<<<<<<<<<<<<<<<<<<<<<<<<<<<<<<<<<<<<<<<<<<<<<<<<


                                            -------------------------------------------
                                                      TRANSPORT STEP NO.  118
                                            -------------------------------------------

 TOTAL ELAPSED TIME SINCE BEGINNING OF SIMULATION =   62640.00    D   
 .....................................................................

                     CUMULATIVE MASS BUDGETS AT END OF TRANSPORT STEP  118, TIME STEP    1, STRESS PERIOD    3
                     -----------------------------------------------------------------------------------------

                                                             IN                           OUT
                                                      ----------------             ----------------
                               CONSTANT CONCENTRATION:    0.000000                    0.000000    
                                        CONSTANT HEAD:    781.8907                   -434.2280    
                                               STREAM:    0.000000                   -347.6669    
                               MASS STOR (FLOW MODEL):   0.5161509E-02              -0.6986623E-07
                                MASS STORAGE (SOLUTE):    0.000000                    0.000000    
                            ---------------------------------------------------------------------------
                                              [TOTAL]:    781.8959     KG            -781.8949     KG  

                                                          NET (IN - OUT):   0.9765625E-03
                                                   DISCREPANCY (PERCENT):   0.1248968E-03
     2 CALLS TO GCG PACKAGE FOR TRANSPORT TIME STEP   119 IN FLOW TIME STEP     1 STRESS PERIOD     3
      2 TOTAL ITERATIONS
  MAXIMUM CONCENTRATION CHANGES FOR EACH ITERATION:
  MAX. CHANGE LAYER,ROW,COL MAX. CHANGE LAYER,ROW,COL MAX. CHANGE LAYER,ROW,COL MAX. CHANGE LAYER,ROW,COL MAX. CHANGE LAYER,ROW,COL
 ------------------------------------------------------------------------------------------------------------------------------------
    0.000     (  1,  1,  1)   0.000     (  1,  1,  1)


                     STREAM MASS BUDGETS AT END OF TRANSPORT STEP  119, TIME STEP    1, STRESS PERIOD    3 FOR COMPONENT   1
                     -------------------------------------------------------------------------------------------------------

                                         CUMULATIVE MASS [M]                                     MASS FOR THIS TIME STEP [M]
                                         -------------------                                    --------------
                      STREAM DEPLETION =   1812.880                          STREAM DEPLETION =   6.603146    
                      INFLOW TO STREAM =   3944.915                          INFLOW TO STREAM =   8.325000    
                          GW TO STREAM =   348.6659                              GW TO STREAM =  0.9990391    
                         PRECIPITATION =   0.000000                             PRECIPITATION =   0.000000    
                                RUNOFF =   0.000000                                    RUNOFF =   0.000000    
                CONSTANT CONCENTRATION =   0.000000                    CONSTANT CONCENTRATION =   0.000000    
                             MASS GAIN =   0.000000                                 MASS GAIN =   0.000000    
                                         -------------------                                    --------------
                              TOTAL IN =   6106.461                                  TOTAL IN =   15.92718    

                   STREAM ACCUMULATION =   1924.817                       STREAM ACCUMULATION =  0.5371114E-03
                        STREAM OUTFLOW =   4181.660                            STREAM OUTFLOW =   15.92665    
                          STREAM TO GW =   0.000000                              STREAM TO GW =   0.000000    
                CONSTANT CONCENTRATION =   0.000000                    CONSTANT CONCENTRATION =   0.000000    
                           EVAPORATION =   0.000000                               EVAPORATION =   0.000000    
                             MASS LOSS =   0.000000                                 MASS LOSS =   0.000000    
                                         -------------------                                    --------------
                             TOTAL OUT =   6106.477                                 TOTAL OUT =   15.92719    

                        NET (IN - OUT) = -0.1562500E-01                        NET (IN - OUT) = -0.1907349E-05
                 DISCREPANCY (PERCENT) = -0.2558762E-03                 DISCREPANCY (PERCENT) = -0.1197543E-04
                                              FLOW ERR (QIN-QOUT-DV) = -0.9536743E-06 [L3/T]




 >>>>>>>>>>>>>>>>>>>>>>>>>>>>>>>>>>>>>>>>>>>>>>>>>>>>>>>FOR COMPONENT NO. 01<<<<<<<<<<<<<<<<<<<<<<<<<<<<<<<<<<<<<<<<<<<<<<<<<<<<<<<


                                            -------------------------------------------
                                                      TRANSPORT STEP NO.  119
                                            -------------------------------------------

 TOTAL ELAPSED TIME SINCE BEGINNING OF SIMULATION =   62820.00    D   
 .....................................................................

                     CUMULATIVE MASS BUDGETS AT END OF TRANSPORT STEP  119, TIME STEP    1, STRESS PERIOD    3
                     -----------------------------------------------------------------------------------------

                                                             IN                           OUT
                                                      ----------------             ----------------
                               CONSTANT CONCENTRATION:    0.000000                    0.000000    
                                        CONSTANT HEAD:    784.1375                   -435.4758    
                                               STREAM:    0.000000                   -348.6659    
                               MASS STOR (FLOW MODEL):   0.5161509E-02              -0.6986623E-07
                                MASS STORAGE (SOLUTE):    0.000000                    0.000000    
                            ---------------------------------------------------------------------------
                                              [TOTAL]:    784.1427     KG            -784.1417     KG  

                                                          NET (IN - OUT):   0.9765625E-03
                                                   DISCREPANCY (PERCENT):   0.1245390E-03
     2 CALLS TO GCG PACKAGE FOR TRANSPORT TIME STEP   120 IN FLOW TIME STEP     1 STRESS PERIOD     3
      2 TOTAL ITERATIONS
  MAXIMUM CONCENTRATION CHANGES FOR EACH ITERATION:
  MAX. CHANGE LAYER,ROW,COL MAX. CHANGE LAYER,ROW,COL MAX. CHANGE LAYER,ROW,COL MAX. CHANGE LAYER,ROW,COL MAX. CHANGE LAYER,ROW,COL
 ------------------------------------------------------------------------------------------------------------------------------------
    0.000     (  1,  1,  1)   0.000     (  1,  1,  1)


                     STREAM MASS BUDGETS AT END OF TRANSPORT STEP  120, TIME STEP    1, STRESS PERIOD    3 FOR COMPONENT   1
                     -------------------------------------------------------------------------------------------------------

                                         CUMULATIVE MASS [M]                                     MASS FOR THIS TIME STEP [M]
                                         -------------------                                    --------------
                      STREAM DEPLETION =   1819.189                          STREAM DEPLETION =   6.309485    
                      INFLOW TO STREAM =   3953.240                          INFLOW TO STREAM =   8.325000    
                          GW TO STREAM =   349.6650                              GW TO STREAM =  0.9990391    
                         PRECIPITATION =   0.000000                             PRECIPITATION =   0.000000    
                                RUNOFF =   0.000000                                    RUNOFF =   0.000000    
                CONSTANT CONCENTRATION =   0.000000                    CONSTANT CONCENTRATION =   0.000000    
                             MASS GAIN =   0.000000                                 MASS GAIN =   0.000000    
                                         -------------------                                    --------------
                              TOTAL IN =   6122.095                                  TOTAL IN =   15.63352    

                   STREAM ACCUMULATION =   1924.817                       STREAM ACCUMULATION =  0.5148358E-03
                        STREAM OUTFLOW =   4197.292                            STREAM OUTFLOW =   15.63301    
                          STREAM TO GW =   0.000000                              STREAM TO GW =   0.000000    
                CONSTANT CONCENTRATION =   0.000000                    CONSTANT CONCENTRATION =   0.000000    
                           EVAPORATION =   0.000000                               EVAPORATION =   0.000000    
                             MASS LOSS =   0.000000                                 MASS LOSS =   0.000000    
                                         -------------------                                    --------------
                             TOTAL OUT =   6122.110                                 TOTAL OUT =   15.63353    

                        NET (IN - OUT) = -0.1513672E-01                        NET (IN - OUT) = -0.4768372E-05
                 DISCREPANCY (PERCENT) = -0.2472471E-03                 DISCREPANCY (PERCENT) = -0.3050093E-04
                                              FLOW ERR (QIN-QOUT-DV) = -0.9536743E-06 [L3/T]




 >>>>>>>>>>>>>>>>>>>>>>>>>>>>>>>>>>>>>>>>>>>>>>>>>>>>>>>FOR COMPONENT NO. 01<<<<<<<<<<<<<<<<<<<<<<<<<<<<<<<<<<<<<<<<<<<<<<<<<<<<<<<


                                            -------------------------------------------
                                                      TRANSPORT STEP NO.  120
                                            -------------------------------------------

 TOTAL ELAPSED TIME SINCE BEGINNING OF SIMULATION =   63000.00    D   
 .....................................................................

                     CUMULATIVE MASS BUDGETS AT END OF TRANSPORT STEP  120, TIME STEP    1, STRESS PERIOD    3
                     -----------------------------------------------------------------------------------------

                                                             IN                           OUT
                                                      ----------------             ----------------
                               CONSTANT CONCENTRATION:    0.000000                    0.000000    
                                        CONSTANT HEAD:    786.3843                   -436.7236    
                                               STREAM:    0.000000                   -349.6650    
                               MASS STOR (FLOW MODEL):   0.5161509E-02              -0.6986623E-07
                                MASS STORAGE (SOLUTE):    0.000000                    0.000000    
                            ---------------------------------------------------------------------------
                                              [TOTAL]:    786.3895     KG            -786.3885     KG  

                                                          NET (IN - OUT):   0.9765625E-03
                                                   DISCREPANCY (PERCENT):   0.1241831E-03
     2 CALLS TO GCG PACKAGE FOR TRANSPORT TIME STEP   121 IN FLOW TIME STEP     1 STRESS PERIOD     3
      2 TOTAL ITERATIONS
  MAXIMUM CONCENTRATION CHANGES FOR EACH ITERATION:
  MAX. CHANGE LAYER,ROW,COL MAX. CHANGE LAYER,ROW,COL MAX. CHANGE LAYER,ROW,COL MAX. CHANGE LAYER,ROW,COL MAX. CHANGE LAYER,ROW,COL
 ------------------------------------------------------------------------------------------------------------------------------------
    0.000     (  1,  1,  1)   0.000     (  1,  1,  1)


                     STREAM MASS BUDGETS AT END OF TRANSPORT STEP  121, TIME STEP    1, STRESS PERIOD    3 FOR COMPONENT   1
                     -------------------------------------------------------------------------------------------------------

                                         CUMULATIVE MASS [M]                                     MASS FOR THIS TIME STEP [M]
                                         -------------------                                    --------------
                      STREAM DEPLETION =   1825.212                          STREAM DEPLETION =   6.022601    
                      INFLOW TO STREAM =   3961.565                          INFLOW TO STREAM =   8.325000    
                          GW TO STREAM =   350.6640                              GW TO STREAM =  0.9990391    
                         PRECIPITATION =   0.000000                             PRECIPITATION =   0.000000    
                                RUNOFF =   0.000000                                    RUNOFF =   0.000000    
                CONSTANT CONCENTRATION =   0.000000                    CONSTANT CONCENTRATION =   0.000000    
                             MASS GAIN =   0.000000                                 MASS GAIN =   0.000000    
                                         -------------------                                    --------------
                              TOTAL IN =   6137.441                                  TOTAL IN =   15.34664    

                   STREAM ACCUMULATION =   1924.818                       STREAM ACCUMULATION =  0.4934595E-03
                        STREAM OUTFLOW =   4212.639                            STREAM OUTFLOW =   15.34615    
                          STREAM TO GW =   0.000000                              STREAM TO GW =   0.000000    
                CONSTANT CONCENTRATION =   0.000000                    CONSTANT CONCENTRATION =   0.000000    
                           EVAPORATION =   0.000000                               EVAPORATION =   0.000000    
                             MASS LOSS =   0.000000                                 MASS LOSS =   0.000000    
                                         -------------------                                    --------------
                             TOTAL OUT =   6137.457                                 TOTAL OUT =   15.34664    

                        NET (IN - OUT) = -0.1562500E-01                        NET (IN - OUT) = -0.2861023E-05
                 DISCREPANCY (PERCENT) = -0.2545846E-03                 DISCREPANCY (PERCENT) = -0.1864266E-04
                                              FLOW ERR (QIN-QOUT-DV) = -0.9536743E-06 [L3/T]




 >>>>>>>>>>>>>>>>>>>>>>>>>>>>>>>>>>>>>>>>>>>>>>>>>>>>>>>FOR COMPONENT NO. 01<<<<<<<<<<<<<<<<<<<<<<<<<<<<<<<<<<<<<<<<<<<<<<<<<<<<<<<


                                            -------------------------------------------
                                                      TRANSPORT STEP NO.  121
                                            -------------------------------------------

 TOTAL ELAPSED TIME SINCE BEGINNING OF SIMULATION =   63180.00    D   
 .....................................................................

                     CUMULATIVE MASS BUDGETS AT END OF TRANSPORT STEP  121, TIME STEP    1, STRESS PERIOD    3
                     -----------------------------------------------------------------------------------------

                                                             IN                           OUT
                                                      ----------------             ----------------
                               CONSTANT CONCENTRATION:    0.000000                    0.000000    
                                        CONSTANT HEAD:    788.6312                   -437.9713    
                                               STREAM:    0.000000                   -350.6640    
                               MASS STOR (FLOW MODEL):   0.5161509E-02              -0.6986623E-07
                                MASS STORAGE (SOLUTE):    0.000000                    0.000000    
                            ---------------------------------------------------------------------------
                                              [TOTAL]:    788.6364     KG            -788.6354     KG  

                                                          NET (IN - OUT):   0.9765625E-03
                                                   DISCREPANCY (PERCENT):   0.1238293E-03
     2 CALLS TO GCG PACKAGE FOR TRANSPORT TIME STEP   122 IN FLOW TIME STEP     1 STRESS PERIOD     3
      2 TOTAL ITERATIONS
  MAXIMUM CONCENTRATION CHANGES FOR EACH ITERATION:
  MAX. CHANGE LAYER,ROW,COL MAX. CHANGE LAYER,ROW,COL MAX. CHANGE LAYER,ROW,COL MAX. CHANGE LAYER,ROW,COL MAX. CHANGE LAYER,ROW,COL
 ------------------------------------------------------------------------------------------------------------------------------------
    0.000     (  1,  1,  1)   0.000     (  1,  1,  1)


                     STREAM MASS BUDGETS AT END OF TRANSPORT STEP  122, TIME STEP    1, STRESS PERIOD    3 FOR COMPONENT   1
                     -------------------------------------------------------------------------------------------------------

                                         CUMULATIVE MASS [M]                                     MASS FOR THIS TIME STEP [M]
                                         -------------------                                    --------------
                      STREAM DEPLETION =   1830.955                          STREAM DEPLETION =   5.742887    
                      INFLOW TO STREAM =   3969.890                          INFLOW TO STREAM =   8.325000    
                          GW TO STREAM =   351.6631                              GW TO STREAM =  0.9990391    
                         PRECIPITATION =   0.000000                             PRECIPITATION =   0.000000    
                                RUNOFF =   0.000000                                    RUNOFF =   0.000000    
                CONSTANT CONCENTRATION =   0.000000                    CONSTANT CONCENTRATION =   0.000000    
                             MASS GAIN =   0.000000                                 MASS GAIN =   0.000000    
                                         -------------------                                    --------------
                              TOTAL IN =   6152.508                                  TOTAL IN =   15.06693    

                   STREAM ACCUMULATION =   1924.818                       STREAM ACCUMULATION =  0.4729466E-03
                        STREAM OUTFLOW =   4227.705                            STREAM OUTFLOW =   15.06645    
                          STREAM TO GW =   0.000000                              STREAM TO GW =   0.000000    
                CONSTANT CONCENTRATION =   0.000000                    CONSTANT CONCENTRATION =   0.000000    
                           EVAPORATION =   0.000000                               EVAPORATION =   0.000000    
                             MASS LOSS =   0.000000                                 MASS LOSS =   0.000000    
                                         -------------------                                    --------------
                             TOTAL OUT =   6152.523                                 TOTAL OUT =   15.06693    

                        NET (IN - OUT) = -0.1562500E-01                        NET (IN - OUT) = -0.9536743E-06
                 DISCREPANCY (PERCENT) = -0.2539612E-03                 DISCREPANCY (PERCENT) = -0.6329588E-05
                                              FLOW ERR (QIN-QOUT-DV) = -0.9536743E-06 [L3/T]




 >>>>>>>>>>>>>>>>>>>>>>>>>>>>>>>>>>>>>>>>>>>>>>>>>>>>>>>FOR COMPONENT NO. 01<<<<<<<<<<<<<<<<<<<<<<<<<<<<<<<<<<<<<<<<<<<<<<<<<<<<<<<


                                            -------------------------------------------
                                                      TRANSPORT STEP NO.  122
                                            -------------------------------------------

 TOTAL ELAPSED TIME SINCE BEGINNING OF SIMULATION =   63360.00    D   
 .....................................................................

                     CUMULATIVE MASS BUDGETS AT END OF TRANSPORT STEP  122, TIME STEP    1, STRESS PERIOD    3
                     -----------------------------------------------------------------------------------------

                                                             IN                           OUT
                                                      ----------------             ----------------
                               CONSTANT CONCENTRATION:    0.000000                    0.000000    
                                        CONSTANT HEAD:    790.8780                   -439.2191    
                                               STREAM:    0.000000                   -351.6631    
                               MASS STOR (FLOW MODEL):   0.5161509E-02              -0.6986623E-07
                                MASS STORAGE (SOLUTE):    0.000000                    0.000000    
                            ---------------------------------------------------------------------------
                                              [TOTAL]:    790.8832     KG            -790.8822     KG  

                                                          NET (IN - OUT):   0.9765625E-03
                                                   DISCREPANCY (PERCENT):   0.1234775E-03
     2 CALLS TO GCG PACKAGE FOR TRANSPORT TIME STEP   123 IN FLOW TIME STEP     1 STRESS PERIOD     3
      2 TOTAL ITERATIONS
  MAXIMUM CONCENTRATION CHANGES FOR EACH ITERATION:
  MAX. CHANGE LAYER,ROW,COL MAX. CHANGE LAYER,ROW,COL MAX. CHANGE LAYER,ROW,COL MAX. CHANGE LAYER,ROW,COL MAX. CHANGE LAYER,ROW,COL
 ------------------------------------------------------------------------------------------------------------------------------------
    0.000     (  1,  1,  1)   0.000     (  1,  1,  1)


                     STREAM MASS BUDGETS AT END OF TRANSPORT STEP  123, TIME STEP    1, STRESS PERIOD    3 FOR COMPONENT   1
                     -------------------------------------------------------------------------------------------------------

                                         CUMULATIVE MASS [M]                                     MASS FOR THIS TIME STEP [M]
                                         -------------------                                    --------------
                      STREAM DEPLETION =   1836.426                          STREAM DEPLETION =   5.470674    
                      INFLOW TO STREAM =   3978.215                          INFLOW TO STREAM =   8.325000    
                          GW TO STREAM =   352.6621                              GW TO STREAM =  0.9990391    
                         PRECIPITATION =   0.000000                             PRECIPITATION =   0.000000    
                                RUNOFF =   0.000000                                    RUNOFF =   0.000000    
                CONSTANT CONCENTRATION =   0.000000                    CONSTANT CONCENTRATION =   0.000000    
                             MASS GAIN =   0.000000                                 MASS GAIN =   0.000000    
                                         -------------------                                    --------------
                              TOTAL IN =   6167.303                                  TOTAL IN =   14.79471    

                   STREAM ACCUMULATION =   1924.819                       STREAM ACCUMULATION =  0.4532636E-03
                        STREAM OUTFLOW =   4242.500                            STREAM OUTFLOW =   14.79426    
                          STREAM TO GW =   0.000000                              STREAM TO GW =   0.000000    
                CONSTANT CONCENTRATION =   0.000000                    CONSTANT CONCENTRATION =   0.000000    
                           EVAPORATION =   0.000000                               EVAPORATION =   0.000000    
                             MASS LOSS =   0.000000                                 MASS LOSS =   0.000000    
                                         -------------------                                    --------------
                             TOTAL OUT =   6167.318                                 TOTAL OUT =   14.79471    

                        NET (IN - OUT) = -0.1562500E-01                        NET (IN - OUT) = -0.9536743E-06
                 DISCREPANCY (PERCENT) = -0.2533519E-03                 DISCREPANCY (PERCENT) = -0.6446049E-05
                                              FLOW ERR (QIN-QOUT-DV) = -0.9536743E-06 [L3/T]




 >>>>>>>>>>>>>>>>>>>>>>>>>>>>>>>>>>>>>>>>>>>>>>>>>>>>>>>FOR COMPONENT NO. 01<<<<<<<<<<<<<<<<<<<<<<<<<<<<<<<<<<<<<<<<<<<<<<<<<<<<<<<


                                            -------------------------------------------
                                                      TRANSPORT STEP NO.  123
                                            -------------------------------------------

 TOTAL ELAPSED TIME SINCE BEGINNING OF SIMULATION =   63540.00    D   
 .....................................................................

                     CUMULATIVE MASS BUDGETS AT END OF TRANSPORT STEP  123, TIME STEP    1, STRESS PERIOD    3
                     -----------------------------------------------------------------------------------------

                                                             IN                           OUT
                                                      ----------------             ----------------
                               CONSTANT CONCENTRATION:    0.000000                    0.000000    
                                        CONSTANT HEAD:    793.1248                   -440.4669    
                                               STREAM:    0.000000                   -352.6621    
                               MASS STOR (FLOW MODEL):   0.5161509E-02              -0.6986623E-07
                                MASS STORAGE (SOLUTE):    0.000000                    0.000000    
                            ---------------------------------------------------------------------------
                                              [TOTAL]:    793.1300     KG            -793.1290     KG  

                                                          NET (IN - OUT):   0.9765625E-03
                                                   DISCREPANCY (PERCENT):   0.1231277E-03
     2 CALLS TO GCG PACKAGE FOR TRANSPORT TIME STEP   124 IN FLOW TIME STEP     1 STRESS PERIOD     3
      2 TOTAL ITERATIONS
  MAXIMUM CONCENTRATION CHANGES FOR EACH ITERATION:
  MAX. CHANGE LAYER,ROW,COL MAX. CHANGE LAYER,ROW,COL MAX. CHANGE LAYER,ROW,COL MAX. CHANGE LAYER,ROW,COL MAX. CHANGE LAYER,ROW,COL
 ------------------------------------------------------------------------------------------------------------------------------------
    0.000     (  1,  1,  1)   0.000     (  1,  1,  1)


                     STREAM MASS BUDGETS AT END OF TRANSPORT STEP  124, TIME STEP    1, STRESS PERIOD    3 FOR COMPONENT   1
                     -------------------------------------------------------------------------------------------------------

                                         CUMULATIVE MASS [M]                                     MASS FOR THIS TIME STEP [M]
                                         -------------------                                    --------------
                      STREAM DEPLETION =   1841.632                          STREAM DEPLETION =   5.206251    
                      INFLOW TO STREAM =   3986.540                          INFLOW TO STREAM =   8.325000    
                          GW TO STREAM =   353.6612                              GW TO STREAM =  0.9990391    
                         PRECIPITATION =   0.000000                             PRECIPITATION =   0.000000    
                                RUNOFF =   0.000000                                    RUNOFF =   0.000000    
                CONSTANT CONCENTRATION =   0.000000                    CONSTANT CONCENTRATION =   0.000000    
                             MASS GAIN =   0.000000                                 MASS GAIN =   0.000000    
                                         -------------------                                    --------------
                              TOTAL IN =   6181.833                                  TOTAL IN =   14.53029    

                   STREAM ACCUMULATION =   1924.819                       STREAM ACCUMULATION =  0.4343786E-03
                        STREAM OUTFLOW =   4257.029                            STREAM OUTFLOW =   14.52986    
                          STREAM TO GW =   0.000000                              STREAM TO GW =   0.000000    
                CONSTANT CONCENTRATION =   0.000000                    CONSTANT CONCENTRATION =   0.000000    
                           EVAPORATION =   0.000000                               EVAPORATION =   0.000000    
                             MASS LOSS =   0.000000                                 MASS LOSS =   0.000000    
                                         -------------------                                    --------------
                             TOTAL OUT =   6181.849                                 TOTAL OUT =   14.53029    

                        NET (IN - OUT) = -0.1562500E-01                        NET (IN - OUT) = -0.1907349E-05
                 DISCREPANCY (PERCENT) = -0.2527564E-03                 DISCREPANCY (PERCENT) = -0.1312671E-04
                                              FLOW ERR (QIN-QOUT-DV) = -0.9536743E-06 [L3/T]




 >>>>>>>>>>>>>>>>>>>>>>>>>>>>>>>>>>>>>>>>>>>>>>>>>>>>>>>FOR COMPONENT NO. 01<<<<<<<<<<<<<<<<<<<<<<<<<<<<<<<<<<<<<<<<<<<<<<<<<<<<<<<


                                            -------------------------------------------
                                                      TRANSPORT STEP NO.  124
                                            -------------------------------------------

 TOTAL ELAPSED TIME SINCE BEGINNING OF SIMULATION =   63720.00    D   
 .....................................................................

                     CUMULATIVE MASS BUDGETS AT END OF TRANSPORT STEP  124, TIME STEP    1, STRESS PERIOD    3
                     -----------------------------------------------------------------------------------------

                                                             IN                           OUT
                                                      ----------------             ----------------
                               CONSTANT CONCENTRATION:    0.000000                    0.000000    
                                        CONSTANT HEAD:    795.3716                   -441.7147    
                                               STREAM:    0.000000                   -353.6612    
                               MASS STOR (FLOW MODEL):   0.5161509E-02              -0.6986623E-07
                                MASS STORAGE (SOLUTE):    0.000000                    0.000000    
                            ---------------------------------------------------------------------------
                                              [TOTAL]:    795.3768     KG            -795.3759     KG  

                                                          NET (IN - OUT):   0.9765625E-03
                                                   DISCREPANCY (PERCENT):   0.1227799E-03
     2 CALLS TO GCG PACKAGE FOR TRANSPORT TIME STEP   125 IN FLOW TIME STEP     1 STRESS PERIOD     3
      2 TOTAL ITERATIONS
  MAXIMUM CONCENTRATION CHANGES FOR EACH ITERATION:
  MAX. CHANGE LAYER,ROW,COL MAX. CHANGE LAYER,ROW,COL MAX. CHANGE LAYER,ROW,COL MAX. CHANGE LAYER,ROW,COL MAX. CHANGE LAYER,ROW,COL
 ------------------------------------------------------------------------------------------------------------------------------------
    0.000     (  1,  1,  1)   0.000     (  1,  1,  1)


                     STREAM MASS BUDGETS AT END OF TRANSPORT STEP  125, TIME STEP    1, STRESS PERIOD    3 FOR COMPONENT   1
                     -------------------------------------------------------------------------------------------------------

                                         CUMULATIVE MASS [M]                                     MASS FOR THIS TIME STEP [M]
                                         -------------------                                    --------------
                      STREAM DEPLETION =   1846.582                          STREAM DEPLETION =   4.949848    
                      INFLOW TO STREAM =   3994.865                          INFLOW TO STREAM =   8.325000    
                          GW TO STREAM =   354.6602                              GW TO STREAM =  0.9990391    
                         PRECIPITATION =   0.000000                             PRECIPITATION =   0.000000    
                                RUNOFF =   0.000000                                    RUNOFF =   0.000000    
                CONSTANT CONCENTRATION =   0.000000                    CONSTANT CONCENTRATION =   0.000000    
                             MASS GAIN =   0.000000                                 MASS GAIN =   0.000000    
                                         -------------------                                    --------------
                              TOTAL IN =   6196.106                                  TOTAL IN =   14.27389    

                   STREAM ACCUMULATION =   1924.820                       STREAM ACCUMULATION =  0.4162604E-03
                        STREAM OUTFLOW =   4271.303                            STREAM OUTFLOW =   14.27347    
                          STREAM TO GW =   0.000000                              STREAM TO GW =   0.000000    
                CONSTANT CONCENTRATION =   0.000000                    CONSTANT CONCENTRATION =   0.000000    
                           EVAPORATION =   0.000000                               EVAPORATION =   0.000000    
                             MASS LOSS =   0.000000                                 MASS LOSS =   0.000000    
                                         -------------------                                    --------------
                             TOTAL OUT =   6196.122                                 TOTAL OUT =   14.27389    

                        NET (IN - OUT) = -0.1562500E-01                        NET (IN - OUT) = -0.2861023E-05
                 DISCREPANCY (PERCENT) = -0.2521742E-03                 DISCREPANCY (PERCENT) = -0.2004375E-04
                                              FLOW ERR (QIN-QOUT-DV) = -0.9536743E-06 [L3/T]




 >>>>>>>>>>>>>>>>>>>>>>>>>>>>>>>>>>>>>>>>>>>>>>>>>>>>>>>FOR COMPONENT NO. 01<<<<<<<<<<<<<<<<<<<<<<<<<<<<<<<<<<<<<<<<<<<<<<<<<<<<<<<


                                            -------------------------------------------
                                                      TRANSPORT STEP NO.  125
                                            -------------------------------------------

 TOTAL ELAPSED TIME SINCE BEGINNING OF SIMULATION =   63900.00    D   
 .....................................................................

                     CUMULATIVE MASS BUDGETS AT END OF TRANSPORT STEP  125, TIME STEP    1, STRESS PERIOD    3
                     -----------------------------------------------------------------------------------------

                                                             IN                           OUT
                                                      ----------------             ----------------
                               CONSTANT CONCENTRATION:    0.000000                    0.000000    
                                        CONSTANT HEAD:    797.6185                   -442.9624    
                                               STREAM:    0.000000                   -354.6602    
                               MASS STOR (FLOW MODEL):   0.5161509E-02              -0.6986623E-07
                                MASS STORAGE (SOLUTE):    0.000000                    0.000000    
                            ---------------------------------------------------------------------------
                                              [TOTAL]:    797.6237     KG            -797.6227     KG  

                                                          NET (IN - OUT):   0.9765625E-03
                                                   DISCREPANCY (PERCENT):   0.1224341E-03
     2 CALLS TO GCG PACKAGE FOR TRANSPORT TIME STEP   126 IN FLOW TIME STEP     1 STRESS PERIOD     3
      2 TOTAL ITERATIONS
  MAXIMUM CONCENTRATION CHANGES FOR EACH ITERATION:
  MAX. CHANGE LAYER,ROW,COL MAX. CHANGE LAYER,ROW,COL MAX. CHANGE LAYER,ROW,COL MAX. CHANGE LAYER,ROW,COL MAX. CHANGE LAYER,ROW,COL
 ------------------------------------------------------------------------------------------------------------------------------------
    0.000     (  1,  1,  1)   0.000     (  1,  1,  1)


                     STREAM MASS BUDGETS AT END OF TRANSPORT STEP  126, TIME STEP    1, STRESS PERIOD    3 FOR COMPONENT   1
                     -------------------------------------------------------------------------------------------------------

                                         CUMULATIVE MASS [M]                                     MASS FOR THIS TIME STEP [M]
                                         -------------------                                    --------------
                      STREAM DEPLETION =   1851.283                          STREAM DEPLETION =   4.701650    
                      INFLOW TO STREAM =   4003.190                          INFLOW TO STREAM =   8.325000    
                          GW TO STREAM =   355.6593                              GW TO STREAM =  0.9990391    
                         PRECIPITATION =   0.000000                             PRECIPITATION =   0.000000    
                                RUNOFF =   0.000000                                    RUNOFF =   0.000000    
                CONSTANT CONCENTRATION =   0.000000                    CONSTANT CONCENTRATION =   0.000000    
                             MASS GAIN =   0.000000                                 MASS GAIN =   0.000000    
                                         -------------------                                    --------------
                              TOTAL IN =   6210.133                                  TOTAL IN =   14.02569    

                   STREAM ACCUMULATION =   1924.820                       STREAM ACCUMULATION =  0.3988792E-03
                        STREAM OUTFLOW =   4285.328                            STREAM OUTFLOW =   14.02529    
                          STREAM TO GW =   0.000000                              STREAM TO GW =   0.000000    
                CONSTANT CONCENTRATION =   0.000000                    CONSTANT CONCENTRATION =   0.000000    
                           EVAPORATION =   0.000000                               EVAPORATION =   0.000000    
                             MASS LOSS =   0.000000                                 MASS LOSS =   0.000000    
                                         -------------------                                    --------------
                             TOTAL OUT =   6210.148                                 TOTAL OUT =   14.02569    

                        NET (IN - OUT) = -0.1513672E-01                        NET (IN - OUT) = -0.2861023E-05
                 DISCREPANCY (PERCENT) = -0.2437420E-03                 DISCREPANCY (PERCENT) = -0.2039845E-04
                                              FLOW ERR (QIN-QOUT-DV) = -0.9536743E-06 [L3/T]




 >>>>>>>>>>>>>>>>>>>>>>>>>>>>>>>>>>>>>>>>>>>>>>>>>>>>>>>FOR COMPONENT NO. 01<<<<<<<<<<<<<<<<<<<<<<<<<<<<<<<<<<<<<<<<<<<<<<<<<<<<<<<


                                            -------------------------------------------
                                                      TRANSPORT STEP NO.  126
                                            -------------------------------------------

 TOTAL ELAPSED TIME SINCE BEGINNING OF SIMULATION =   64080.00    D   
 .....................................................................

                     CUMULATIVE MASS BUDGETS AT END OF TRANSPORT STEP  126, TIME STEP    1, STRESS PERIOD    3
                     -----------------------------------------------------------------------------------------

                                                             IN                           OUT
                                                      ----------------             ----------------
                               CONSTANT CONCENTRATION:    0.000000                    0.000000    
                                        CONSTANT HEAD:    799.8653                   -444.2102    
                                               STREAM:    0.000000                   -355.6593    
                               MASS STOR (FLOW MODEL):   0.5161509E-02              -0.6986623E-07
                                MASS STORAGE (SOLUTE):    0.000000                    0.000000    
                            ---------------------------------------------------------------------------
                                              [TOTAL]:    799.8705     KG            -799.8695     KG  

                                                          NET (IN - OUT):   0.9765625E-03
                                                   DISCREPANCY (PERCENT):   0.1220901E-03
     2 CALLS TO GCG PACKAGE FOR TRANSPORT TIME STEP   127 IN FLOW TIME STEP     1 STRESS PERIOD     3
      2 TOTAL ITERATIONS
  MAXIMUM CONCENTRATION CHANGES FOR EACH ITERATION:
  MAX. CHANGE LAYER,ROW,COL MAX. CHANGE LAYER,ROW,COL MAX. CHANGE LAYER,ROW,COL MAX. CHANGE LAYER,ROW,COL MAX. CHANGE LAYER,ROW,COL
 ------------------------------------------------------------------------------------------------------------------------------------
    0.000     (  1,  1,  1)   0.000     (  1,  1,  1)


                     STREAM MASS BUDGETS AT END OF TRANSPORT STEP  127, TIME STEP    1, STRESS PERIOD    3 FOR COMPONENT   1
                     -------------------------------------------------------------------------------------------------------

                                         CUMULATIVE MASS [M]                                     MASS FOR THIS TIME STEP [M]
                                         -------------------                                    --------------
                      STREAM DEPLETION =   1855.745                          STREAM DEPLETION =   4.461789    
                      INFLOW TO STREAM =   4011.515                          INFLOW TO STREAM =   8.325000    
                          GW TO STREAM =   356.6584                              GW TO STREAM =  0.9990391    
                         PRECIPITATION =   0.000000                             PRECIPITATION =   0.000000    
                                RUNOFF =   0.000000                                    RUNOFF =   0.000000    
                CONSTANT CONCENTRATION =   0.000000                    CONSTANT CONCENTRATION =   0.000000    
                             MASS GAIN =   0.000000                                 MASS GAIN =   0.000000    
                                         -------------------                                    --------------
                              TOTAL IN =   6223.918                                  TOTAL IN =   13.78583    

                   STREAM ACCUMULATION =   1924.820                       STREAM ACCUMULATION =  0.3822062E-03
                        STREAM OUTFLOW =   4299.114                            STREAM OUTFLOW =   13.78545    
                          STREAM TO GW =   0.000000                              STREAM TO GW =   0.000000    
                CONSTANT CONCENTRATION =   0.000000                    CONSTANT CONCENTRATION =   0.000000    
                           EVAPORATION =   0.000000                               EVAPORATION =   0.000000    
                             MASS LOSS =   0.000000                                 MASS LOSS =   0.000000    
                                         -------------------                                    --------------
                             TOTAL OUT =   6223.934                                 TOTAL OUT =   13.78583    

                        NET (IN - OUT) = -0.1611328E-01                        NET (IN - OUT) = -0.1907349E-05
                 DISCREPANCY (PERCENT) = -0.2588926E-03                 DISCREPANCY (PERCENT) = -0.1383557E-04
                                              FLOW ERR (QIN-QOUT-DV) = -0.9536743E-06 [L3/T]




 >>>>>>>>>>>>>>>>>>>>>>>>>>>>>>>>>>>>>>>>>>>>>>>>>>>>>>>FOR COMPONENT NO. 01<<<<<<<<<<<<<<<<<<<<<<<<<<<<<<<<<<<<<<<<<<<<<<<<<<<<<<<


                                            -------------------------------------------
                                                      TRANSPORT STEP NO.  127
                                            -------------------------------------------

 TOTAL ELAPSED TIME SINCE BEGINNING OF SIMULATION =   64260.00    D   
 .....................................................................

                     CUMULATIVE MASS BUDGETS AT END OF TRANSPORT STEP  127, TIME STEP    1, STRESS PERIOD    3
                     -----------------------------------------------------------------------------------------

                                                             IN                           OUT
                                                      ----------------             ----------------
                               CONSTANT CONCENTRATION:    0.000000                    0.000000    
                                        CONSTANT HEAD:    802.1121                   -445.4580    
                                               STREAM:    0.000000                   -356.6584    
                               MASS STOR (FLOW MODEL):   0.5161509E-02              -0.6986623E-07
                                MASS STORAGE (SOLUTE):    0.000000                    0.000000    
                            ---------------------------------------------------------------------------
                                              [TOTAL]:    802.1173     KG            -802.1163     KG  

                                                          NET (IN - OUT):   0.9765625E-03
                                                   DISCREPANCY (PERCENT):   0.1217482E-03
     2 CALLS TO GCG PACKAGE FOR TRANSPORT TIME STEP   128 IN FLOW TIME STEP     1 STRESS PERIOD     3
      2 TOTAL ITERATIONS
  MAXIMUM CONCENTRATION CHANGES FOR EACH ITERATION:
  MAX. CHANGE LAYER,ROW,COL MAX. CHANGE LAYER,ROW,COL MAX. CHANGE LAYER,ROW,COL MAX. CHANGE LAYER,ROW,COL MAX. CHANGE LAYER,ROW,COL
 ------------------------------------------------------------------------------------------------------------------------------------
    0.000     (  1,  1,  1)   0.000     (  1,  1,  1)


                     STREAM MASS BUDGETS AT END OF TRANSPORT STEP  128, TIME STEP    1, STRESS PERIOD    3 FOR COMPONENT   1
                     -------------------------------------------------------------------------------------------------------

                                         CUMULATIVE MASS [M]                                     MASS FOR THIS TIME STEP [M]
                                         -------------------                                    --------------
                      STREAM DEPLETION =   1859.976                          STREAM DEPLETION =   4.230352    
                      INFLOW TO STREAM =   4019.840                          INFLOW TO STREAM =   8.325000    
                          GW TO STREAM =   357.6574                              GW TO STREAM =  0.9990391    
                         PRECIPITATION =   0.000000                             PRECIPITATION =   0.000000    
                                RUNOFF =   0.000000                                    RUNOFF =   0.000000    
                CONSTANT CONCENTRATION =   0.000000                    CONSTANT CONCENTRATION =   0.000000    
                             MASS GAIN =   0.000000                                 MASS GAIN =   0.000000    
                                         -------------------                                    --------------
                              TOTAL IN =   6237.473                                  TOTAL IN =   13.55439    

                   STREAM ACCUMULATION =   1924.821                       STREAM ACCUMULATION =  0.3662218E-03
                        STREAM OUTFLOW =   4312.668                            STREAM OUTFLOW =   13.55403    
                          STREAM TO GW =   0.000000                              STREAM TO GW =   0.000000    
                CONSTANT CONCENTRATION =   0.000000                    CONSTANT CONCENTRATION =   0.000000    
                           EVAPORATION =   0.000000                               EVAPORATION =   0.000000    
                             MASS LOSS =   0.000000                                 MASS LOSS =   0.000000    
                                         -------------------                                    --------------
                             TOTAL OUT =   6237.489                                 TOTAL OUT =   13.55439    

                        NET (IN - OUT) = -0.1611328E-01                        NET (IN - OUT) = -0.2861023E-05
                 DISCREPANCY (PERCENT) = -0.2583300E-03                 DISCREPANCY (PERCENT) = -0.2110772E-04
                                              FLOW ERR (QIN-QOUT-DV) = -0.9536743E-06 [L3/T]




 >>>>>>>>>>>>>>>>>>>>>>>>>>>>>>>>>>>>>>>>>>>>>>>>>>>>>>>FOR COMPONENT NO. 01<<<<<<<<<<<<<<<<<<<<<<<<<<<<<<<<<<<<<<<<<<<<<<<<<<<<<<<


                                            -------------------------------------------
                                                      TRANSPORT STEP NO.  128
                                            -------------------------------------------

 TOTAL ELAPSED TIME SINCE BEGINNING OF SIMULATION =   64440.00    D   
 .....................................................................

                     CUMULATIVE MASS BUDGETS AT END OF TRANSPORT STEP  128, TIME STEP    1, STRESS PERIOD    3
                     -----------------------------------------------------------------------------------------

                                                             IN                           OUT
                                                      ----------------             ----------------
                               CONSTANT CONCENTRATION:    0.000000                    0.000000    
                                        CONSTANT HEAD:    804.3589                   -446.7057    
                                               STREAM:    0.000000                   -357.6574    
                               MASS STOR (FLOW MODEL):   0.5161509E-02              -0.6986623E-07
                                MASS STORAGE (SOLUTE):    0.000000                    0.000000    
                            ---------------------------------------------------------------------------
                                              [TOTAL]:    804.3641     KG            -804.3632     KG  

                                                          NET (IN - OUT):   0.9765625E-03
                                                   DISCREPANCY (PERCENT):   0.1214081E-03
     2 CALLS TO GCG PACKAGE FOR TRANSPORT TIME STEP   129 IN FLOW TIME STEP     1 STRESS PERIOD     3
      2 TOTAL ITERATIONS
  MAXIMUM CONCENTRATION CHANGES FOR EACH ITERATION:
  MAX. CHANGE LAYER,ROW,COL MAX. CHANGE LAYER,ROW,COL MAX. CHANGE LAYER,ROW,COL MAX. CHANGE LAYER,ROW,COL MAX. CHANGE LAYER,ROW,COL
 ------------------------------------------------------------------------------------------------------------------------------------
    0.000     (  1,  1,  1)   0.000     (  1,  1,  1)


                     STREAM MASS BUDGETS AT END OF TRANSPORT STEP  129, TIME STEP    1, STRESS PERIOD    3 FOR COMPONENT   1
                     -------------------------------------------------------------------------------------------------------

                                         CUMULATIVE MASS [M]                                     MASS FOR THIS TIME STEP [M]
                                         -------------------                                    --------------
                      STREAM DEPLETION =   1863.983                          STREAM DEPLETION =   4.007393    
                      INFLOW TO STREAM =   4028.165                          INFLOW TO STREAM =   8.325000    
                          GW TO STREAM =   358.6565                              GW TO STREAM =  0.9990391    
                         PRECIPITATION =   0.000000                             PRECIPITATION =   0.000000    
                                RUNOFF =   0.000000                                    RUNOFF =   0.000000    
                CONSTANT CONCENTRATION =   0.000000                    CONSTANT CONCENTRATION =   0.000000    
                             MASS GAIN =   0.000000                                 MASS GAIN =   0.000000    
                                         -------------------                                    --------------
                              TOTAL IN =   6250.804                                  TOTAL IN =   13.33143    

                   STREAM ACCUMULATION =   1924.821                       STREAM ACCUMULATION =  0.3508935E-03
                        STREAM OUTFLOW =   4325.999                            STREAM OUTFLOW =   13.33108    
                          STREAM TO GW =   0.000000                              STREAM TO GW =   0.000000    
                CONSTANT CONCENTRATION =   0.000000                    CONSTANT CONCENTRATION =   0.000000    
                           EVAPORATION =   0.000000                               EVAPORATION =   0.000000    
                             MASS LOSS =   0.000000                                 MASS LOSS =   0.000000    
                                         -------------------                                    --------------
                             TOTAL OUT =   6250.820                                 TOTAL OUT =   13.33143    

                        NET (IN - OUT) = -0.1660156E-01                        NET (IN - OUT) = -0.2861023E-05
                 DISCREPANCY (PERCENT) = -0.2655905E-03                 DISCREPANCY (PERCENT) = -0.2146073E-04
                                              FLOW ERR (QIN-QOUT-DV) = -0.9536743E-06 [L3/T]




 >>>>>>>>>>>>>>>>>>>>>>>>>>>>>>>>>>>>>>>>>>>>>>>>>>>>>>>FOR COMPONENT NO. 01<<<<<<<<<<<<<<<<<<<<<<<<<<<<<<<<<<<<<<<<<<<<<<<<<<<<<<<


                                            -------------------------------------------
                                                      TRANSPORT STEP NO.  129
                                            -------------------------------------------

 TOTAL ELAPSED TIME SINCE BEGINNING OF SIMULATION =   64620.00    D   
 .....................................................................

                     CUMULATIVE MASS BUDGETS AT END OF TRANSPORT STEP  129, TIME STEP    1, STRESS PERIOD    3
                     -----------------------------------------------------------------------------------------

                                                             IN                           OUT
                                                      ----------------             ----------------
                               CONSTANT CONCENTRATION:    0.000000                    0.000000    
                                        CONSTANT HEAD:    806.6058                   -447.9535    
                                               STREAM:    0.000000                   -358.6565    
                               MASS STOR (FLOW MODEL):   0.5161509E-02              -0.6986623E-07
                                MASS STORAGE (SOLUTE):    0.000000                    0.000000    
                            ---------------------------------------------------------------------------
                                              [TOTAL]:    806.6110     KG            -806.6100     KG  

                                                          NET (IN - OUT):   0.9765625E-03
                                                   DISCREPANCY (PERCENT):   0.1210699E-03
     2 CALLS TO GCG PACKAGE FOR TRANSPORT TIME STEP   130 IN FLOW TIME STEP     1 STRESS PERIOD     3
      2 TOTAL ITERATIONS
  MAXIMUM CONCENTRATION CHANGES FOR EACH ITERATION:
  MAX. CHANGE LAYER,ROW,COL MAX. CHANGE LAYER,ROW,COL MAX. CHANGE LAYER,ROW,COL MAX. CHANGE LAYER,ROW,COL MAX. CHANGE LAYER,ROW,COL
 ------------------------------------------------------------------------------------------------------------------------------------
    0.000     (  1,  1,  1)   0.000     (  1,  1,  1)


                     STREAM MASS BUDGETS AT END OF TRANSPORT STEP  130, TIME STEP    1, STRESS PERIOD    3 FOR COMPONENT   1
                     -------------------------------------------------------------------------------------------------------

                                         CUMULATIVE MASS [M]                                     MASS FOR THIS TIME STEP [M]
                                         -------------------                                    --------------
                      STREAM DEPLETION =   1867.776                          STREAM DEPLETION =   3.792920    
                      INFLOW TO STREAM =   4036.490                          INFLOW TO STREAM =   8.325000    
                          GW TO STREAM =   359.6555                              GW TO STREAM =  0.9990391    
                         PRECIPITATION =   0.000000                             PRECIPITATION =   0.000000    
                                RUNOFF =   0.000000                                    RUNOFF =   0.000000    
                CONSTANT CONCENTRATION =   0.000000                    CONSTANT CONCENTRATION =   0.000000    
                             MASS GAIN =   0.000000                                 MASS GAIN =   0.000000    
                                         -------------------                                    --------------
                              TOTAL IN =   6263.921                                  TOTAL IN =   13.11696    

                   STREAM ACCUMULATION =   1924.821                       STREAM ACCUMULATION =  0.3361920E-03
                        STREAM OUTFLOW =   4339.116                            STREAM OUTFLOW =   13.11662    
                          STREAM TO GW =   0.000000                              STREAM TO GW =   0.000000    
                CONSTANT CONCENTRATION =   0.000000                    CONSTANT CONCENTRATION =   0.000000    
                           EVAPORATION =   0.000000                               EVAPORATION =   0.000000    
                             MASS LOSS =   0.000000                                 MASS LOSS =   0.000000    
                                         -------------------                                    --------------
                             TOTAL OUT =   6263.937                                 TOTAL OUT =   13.11696    

                        NET (IN - OUT) = -0.1611328E-01                        NET (IN - OUT) = -0.1907349E-05
                 DISCREPANCY (PERCENT) = -0.2572392E-03                 DISCREPANCY (PERCENT) = -0.1454109E-04
                                              FLOW ERR (QIN-QOUT-DV) = -0.9536743E-06 [L3/T]




 >>>>>>>>>>>>>>>>>>>>>>>>>>>>>>>>>>>>>>>>>>>>>>>>>>>>>>>FOR COMPONENT NO. 01<<<<<<<<<<<<<<<<<<<<<<<<<<<<<<<<<<<<<<<<<<<<<<<<<<<<<<<


                                            -------------------------------------------
                                                      TRANSPORT STEP NO.  130
                                            -------------------------------------------

 TOTAL ELAPSED TIME SINCE BEGINNING OF SIMULATION =   64800.00    D   
 .....................................................................

                     CUMULATIVE MASS BUDGETS AT END OF TRANSPORT STEP  130, TIME STEP    1, STRESS PERIOD    3
                     -----------------------------------------------------------------------------------------

                                                             IN                           OUT
                                                      ----------------             ----------------
                               CONSTANT CONCENTRATION:    0.000000                    0.000000    
                                        CONSTANT HEAD:    808.8526                   -449.2013    
                                               STREAM:    0.000000                   -359.6555    
                               MASS STOR (FLOW MODEL):   0.5161509E-02              -0.6986623E-07
                                MASS STORAGE (SOLUTE):    0.000000                    0.000000    
                            ---------------------------------------------------------------------------
                                              [TOTAL]:    808.8578     KG            -808.8568     KG  

                                                          NET (IN - OUT):   0.9765625E-03
                                                   DISCREPANCY (PERCENT):   0.1207336E-03
     2 CALLS TO GCG PACKAGE FOR TRANSPORT TIME STEP   131 IN FLOW TIME STEP     1 STRESS PERIOD     3
      2 TOTAL ITERATIONS
  MAXIMUM CONCENTRATION CHANGES FOR EACH ITERATION:
  MAX. CHANGE LAYER,ROW,COL MAX. CHANGE LAYER,ROW,COL MAX. CHANGE LAYER,ROW,COL MAX. CHANGE LAYER,ROW,COL MAX. CHANGE LAYER,ROW,COL
 ------------------------------------------------------------------------------------------------------------------------------------
    0.000     (  1,  1,  1)   0.000     (  1,  1,  1)


                     STREAM MASS BUDGETS AT END OF TRANSPORT STEP  131, TIME STEP    1, STRESS PERIOD    3 FOR COMPONENT   1
                     -------------------------------------------------------------------------------------------------------

                                         CUMULATIVE MASS [M]                                     MASS FOR THIS TIME STEP [M]
                                         -------------------                                    --------------
                      STREAM DEPLETION =   1871.363                          STREAM DEPLETION =   3.586908    
                      INFLOW TO STREAM =   4044.814                          INFLOW TO STREAM =   8.325000    
                          GW TO STREAM =   360.6546                              GW TO STREAM =  0.9990391    
                         PRECIPITATION =   0.000000                             PRECIPITATION =   0.000000    
                                RUNOFF =   0.000000                                    RUNOFF =   0.000000    
                CONSTANT CONCENTRATION =   0.000000                    CONSTANT CONCENTRATION =   0.000000    
                             MASS GAIN =   0.000000                                 MASS GAIN =   0.000000    
                                         -------------------                                    --------------
                              TOTAL IN =   6276.832                                  TOTAL IN =   12.91095    

                   STREAM ACCUMULATION =   1924.822                       STREAM ACCUMULATION =  0.3220932E-03
                        STREAM OUTFLOW =   4352.026                            STREAM OUTFLOW =   12.91063    
                          STREAM TO GW =   0.000000                              STREAM TO GW =   0.000000    
                CONSTANT CONCENTRATION =   0.000000                    CONSTANT CONCENTRATION =   0.000000    
                           EVAPORATION =   0.000000                               EVAPORATION =   0.000000    
                             MASS LOSS =   0.000000                                 MASS LOSS =   0.000000    
                                         -------------------                                    --------------
                             TOTAL OUT =   6276.848                                 TOTAL OUT =   12.91095    

                        NET (IN - OUT) = -0.1611328E-01                        NET (IN - OUT) = -0.2861023E-05
                 DISCREPANCY (PERCENT) = -0.2567101E-03                 DISCREPANCY (PERCENT) = -0.2215967E-04
                                              FLOW ERR (QIN-QOUT-DV) = -0.9536743E-06 [L3/T]




 >>>>>>>>>>>>>>>>>>>>>>>>>>>>>>>>>>>>>>>>>>>>>>>>>>>>>>>FOR COMPONENT NO. 01<<<<<<<<<<<<<<<<<<<<<<<<<<<<<<<<<<<<<<<<<<<<<<<<<<<<<<<


                                            -------------------------------------------
                                                      TRANSPORT STEP NO.  131
                                            -------------------------------------------

 TOTAL ELAPSED TIME SINCE BEGINNING OF SIMULATION =   64980.00    D   
 .....................................................................

                     CUMULATIVE MASS BUDGETS AT END OF TRANSPORT STEP  131, TIME STEP    1, STRESS PERIOD    3
                     -----------------------------------------------------------------------------------------

                                                             IN                           OUT
                                                      ----------------             ----------------
                               CONSTANT CONCENTRATION:    0.000000                    0.000000    
                                        CONSTANT HEAD:    811.0994                   -450.4491    
                                               STREAM:    0.000000                   -360.6546    
                               MASS STOR (FLOW MODEL):   0.5161509E-02              -0.6986623E-07
                                MASS STORAGE (SOLUTE):    0.000000                    0.000000    
                            ---------------------------------------------------------------------------
                                              [TOTAL]:    811.1046     KG            -811.1036     KG  

                                                          NET (IN - OUT):   0.9765625E-03
                                                   DISCREPANCY (PERCENT):   0.1203992E-03
     2 CALLS TO GCG PACKAGE FOR TRANSPORT TIME STEP   132 IN FLOW TIME STEP     1 STRESS PERIOD     3
      2 TOTAL ITERATIONS
  MAXIMUM CONCENTRATION CHANGES FOR EACH ITERATION:
  MAX. CHANGE LAYER,ROW,COL MAX. CHANGE LAYER,ROW,COL MAX. CHANGE LAYER,ROW,COL MAX. CHANGE LAYER,ROW,COL MAX. CHANGE LAYER,ROW,COL
 ------------------------------------------------------------------------------------------------------------------------------------
    0.000     (  1,  1,  1)   0.000     (  1,  1,  1)


                     STREAM MASS BUDGETS AT END OF TRANSPORT STEP  132, TIME STEP    1, STRESS PERIOD    3 FOR COMPONENT   1
                     -------------------------------------------------------------------------------------------------------

                                         CUMULATIVE MASS [M]                                     MASS FOR THIS TIME STEP [M]
                                         -------------------                                    --------------
                      STREAM DEPLETION =   1874.752                          STREAM DEPLETION =   3.389299    
                      INFLOW TO STREAM =   4053.139                          INFLOW TO STREAM =   8.325000    
                          GW TO STREAM =   361.6536                              GW TO STREAM =  0.9990391    
                         PRECIPITATION =   0.000000                             PRECIPITATION =   0.000000    
                                RUNOFF =   0.000000                                    RUNOFF =   0.000000    
                CONSTANT CONCENTRATION =   0.000000                    CONSTANT CONCENTRATION =   0.000000    
                             MASS GAIN =   0.000000                                 MASS GAIN =   0.000000    
                                         -------------------                                    --------------
                              TOTAL IN =   6289.545                                  TOTAL IN =   12.71334    

                   STREAM ACCUMULATION =   1924.822                       STREAM ACCUMULATION =  0.3085728E-03
                        STREAM OUTFLOW =   4364.739                            STREAM OUTFLOW =   12.71303    
                          STREAM TO GW =   0.000000                              STREAM TO GW =   0.000000    
                CONSTANT CONCENTRATION =   0.000000                    CONSTANT CONCENTRATION =   0.000000    
                           EVAPORATION =   0.000000                               EVAPORATION =   0.000000    
                             MASS LOSS =   0.000000                                 MASS LOSS =   0.000000    
                                         -------------------                                    --------------
                             TOTAL OUT =   6289.562                                 TOTAL OUT =   12.71334    

                        NET (IN - OUT) = -0.1660156E-01                        NET (IN - OUT) = -0.3814697E-05
                 DISCREPANCY (PERCENT) = -0.2639546E-03                 DISCREPANCY (PERCENT) = -0.3000547E-04
                                              FLOW ERR (QIN-QOUT-DV) = -0.9536743E-06 [L3/T]




 >>>>>>>>>>>>>>>>>>>>>>>>>>>>>>>>>>>>>>>>>>>>>>>>>>>>>>>FOR COMPONENT NO. 01<<<<<<<<<<<<<<<<<<<<<<<<<<<<<<<<<<<<<<<<<<<<<<<<<<<<<<<


                                            -------------------------------------------
                                                      TRANSPORT STEP NO.  132
                                            -------------------------------------------

 TOTAL ELAPSED TIME SINCE BEGINNING OF SIMULATION =   65160.00    D   
 .....................................................................

                     CUMULATIVE MASS BUDGETS AT END OF TRANSPORT STEP  132, TIME STEP    1, STRESS PERIOD    3
                     -----------------------------------------------------------------------------------------

                                                             IN                           OUT
                                                      ----------------             ----------------
                               CONSTANT CONCENTRATION:    0.000000                    0.000000    
                                        CONSTANT HEAD:    813.3463                   -451.6968    
                                               STREAM:    0.000000                   -361.6536    
                               MASS STOR (FLOW MODEL):   0.5161509E-02              -0.6986623E-07
                                MASS STORAGE (SOLUTE):    0.000000                    0.000000    
                            ---------------------------------------------------------------------------
                                              [TOTAL]:    813.3514     KG            -813.3505     KG  

                                                          NET (IN - OUT):   0.9765625E-03
                                                   DISCREPANCY (PERCENT):   0.1200666E-03
     2 CALLS TO GCG PACKAGE FOR TRANSPORT TIME STEP   133 IN FLOW TIME STEP     1 STRESS PERIOD     3
      2 TOTAL ITERATIONS
  MAXIMUM CONCENTRATION CHANGES FOR EACH ITERATION:
  MAX. CHANGE LAYER,ROW,COL MAX. CHANGE LAYER,ROW,COL MAX. CHANGE LAYER,ROW,COL MAX. CHANGE LAYER,ROW,COL MAX. CHANGE LAYER,ROW,COL
 ------------------------------------------------------------------------------------------------------------------------------------
    0.000     (  1,  1,  1)   0.000     (  1,  1,  1)


                     STREAM MASS BUDGETS AT END OF TRANSPORT STEP  133, TIME STEP    1, STRESS PERIOD    3 FOR COMPONENT   1
                     -------------------------------------------------------------------------------------------------------

                                         CUMULATIVE MASS [M]                                     MASS FOR THIS TIME STEP [M]
                                         -------------------                                    --------------
                      STREAM DEPLETION =   1877.952                          STREAM DEPLETION =   3.200009    
                      INFLOW TO STREAM =   4061.464                          INFLOW TO STREAM =   8.325000    
                          GW TO STREAM =   362.6527                              GW TO STREAM =  0.9990391    
                         PRECIPITATION =   0.000000                             PRECIPITATION =   0.000000    
                                RUNOFF =   0.000000                                    RUNOFF =   0.000000    
                CONSTANT CONCENTRATION =   0.000000                    CONSTANT CONCENTRATION =   0.000000    
                             MASS GAIN =   0.000000                                 MASS GAIN =   0.000000    
                                         -------------------                                    --------------
                              TOTAL IN =   6302.069                                  TOTAL IN =   12.52405    

                   STREAM ACCUMULATION =   1924.822                       STREAM ACCUMULATION =  0.2956078E-03
                        STREAM OUTFLOW =   4377.263                            STREAM OUTFLOW =   12.52375    
                          STREAM TO GW =   0.000000                              STREAM TO GW =   0.000000    
                CONSTANT CONCENTRATION =   0.000000                    CONSTANT CONCENTRATION =   0.000000    
                           EVAPORATION =   0.000000                               EVAPORATION =   0.000000    
                             MASS LOSS =   0.000000                                 MASS LOSS =   0.000000    
                                         -------------------                                    --------------
                             TOTAL OUT =   6302.085                                 TOTAL OUT =   12.52405    

                        NET (IN - OUT) = -0.1611328E-01                        NET (IN - OUT) = -0.2861023E-05
                 DISCREPANCY (PERCENT) = -0.2556821E-03                 DISCREPANCY (PERCENT) = -0.2284423E-04
                                              FLOW ERR (QIN-QOUT-DV) = -0.9536743E-06 [L3/T]




 >>>>>>>>>>>>>>>>>>>>>>>>>>>>>>>>>>>>>>>>>>>>>>>>>>>>>>>FOR COMPONENT NO. 01<<<<<<<<<<<<<<<<<<<<<<<<<<<<<<<<<<<<<<<<<<<<<<<<<<<<<<<


                                            -------------------------------------------
                                                      TRANSPORT STEP NO.  133
                                            -------------------------------------------

 TOTAL ELAPSED TIME SINCE BEGINNING OF SIMULATION =   65340.00    D   
 .....................................................................

                     CUMULATIVE MASS BUDGETS AT END OF TRANSPORT STEP  133, TIME STEP    1, STRESS PERIOD    3
                     -----------------------------------------------------------------------------------------

                                                             IN                           OUT
                                                      ----------------             ----------------
                               CONSTANT CONCENTRATION:    0.000000                    0.000000    
                                        CONSTANT HEAD:    815.5931                   -452.9446    
                                               STREAM:    0.000000                   -362.6527    
                               MASS STOR (FLOW MODEL):   0.5161509E-02              -0.6986623E-07
                                MASS STORAGE (SOLUTE):    0.000000                    0.000000    
                            ---------------------------------------------------------------------------
                                              [TOTAL]:    815.5983     KG            -815.5973     KG  

                                                          NET (IN - OUT):   0.9765625E-03
                                                   DISCREPANCY (PERCENT):   0.1197358E-03
     2 CALLS TO GCG PACKAGE FOR TRANSPORT TIME STEP   134 IN FLOW TIME STEP     1 STRESS PERIOD     3
      2 TOTAL ITERATIONS
  MAXIMUM CONCENTRATION CHANGES FOR EACH ITERATION:
  MAX. CHANGE LAYER,ROW,COL MAX. CHANGE LAYER,ROW,COL MAX. CHANGE LAYER,ROW,COL MAX. CHANGE LAYER,ROW,COL MAX. CHANGE LAYER,ROW,COL
 ------------------------------------------------------------------------------------------------------------------------------------
    0.000     (  1,  1,  1)   0.000     (  1,  1,  1)


                     STREAM MASS BUDGETS AT END OF TRANSPORT STEP  134, TIME STEP    1, STRESS PERIOD    3 FOR COMPONENT   1
                     -------------------------------------------------------------------------------------------------------

                                         CUMULATIVE MASS [M]                                     MASS FOR THIS TIME STEP [M]
                                         -------------------                                    --------------
                      STREAM DEPLETION =   1880.971                          STREAM DEPLETION =   3.018924    
                      INFLOW TO STREAM =   4069.789                          INFLOW TO STREAM =   8.325000    
                          GW TO STREAM =   363.6517                              GW TO STREAM =  0.9990391    
                         PRECIPITATION =   0.000000                             PRECIPITATION =   0.000000    
                                RUNOFF =   0.000000                                    RUNOFF =   0.000000    
                CONSTANT CONCENTRATION =   0.000000                    CONSTANT CONCENTRATION =   0.000000    
                             MASS GAIN =   0.000000                                 MASS GAIN =   0.000000    
                                         -------------------                                    --------------
                              TOTAL IN =   6314.412                                  TOTAL IN =   12.34296    

                   STREAM ACCUMULATION =   1924.823                       STREAM ACCUMULATION =  0.2831761E-03
                        STREAM OUTFLOW =   4389.606                            STREAM OUTFLOW =   12.34268    
                          STREAM TO GW =   0.000000                              STREAM TO GW =   0.000000    
                CONSTANT CONCENTRATION =   0.000000                    CONSTANT CONCENTRATION =   0.000000    
                           EVAPORATION =   0.000000                               EVAPORATION =   0.000000    
                             MASS LOSS =   0.000000                                 MASS LOSS =   0.000000    
                                         -------------------                                    --------------
                             TOTAL OUT =   6314.429                                 TOTAL OUT =   12.34297    

                        NET (IN - OUT) = -0.1660156E-01                        NET (IN - OUT) = -0.2861023E-05
                 DISCREPANCY (PERCENT) = -0.2629151E-03                 DISCREPANCY (PERCENT) = -0.2317938E-04
                                              FLOW ERR (QIN-QOUT-DV) = -0.9536743E-06 [L3/T]




 >>>>>>>>>>>>>>>>>>>>>>>>>>>>>>>>>>>>>>>>>>>>>>>>>>>>>>>FOR COMPONENT NO. 01<<<<<<<<<<<<<<<<<<<<<<<<<<<<<<<<<<<<<<<<<<<<<<<<<<<<<<<


                                            -------------------------------------------
                                                      TRANSPORT STEP NO.  134
                                            -------------------------------------------

 TOTAL ELAPSED TIME SINCE BEGINNING OF SIMULATION =   65520.00    D   
 .....................................................................

                     CUMULATIVE MASS BUDGETS AT END OF TRANSPORT STEP  134, TIME STEP    1, STRESS PERIOD    3
                     -----------------------------------------------------------------------------------------

                                                             IN                           OUT
                                                      ----------------             ----------------
                               CONSTANT CONCENTRATION:    0.000000                    0.000000    
                                        CONSTANT HEAD:    817.8399                   -454.1924    
                                               STREAM:    0.000000                   -363.6517    
                               MASS STOR (FLOW MODEL):   0.5161509E-02              -0.6986623E-07
                                MASS STORAGE (SOLUTE):    0.000000                    0.000000    
                            ---------------------------------------------------------------------------
                                              [TOTAL]:    817.8451     KG            -817.8441     KG  

                                                          NET (IN - OUT):   0.9765625E-03
                                                   DISCREPANCY (PERCENT):   0.1194069E-03
     2 CALLS TO GCG PACKAGE FOR TRANSPORT TIME STEP   135 IN FLOW TIME STEP     1 STRESS PERIOD     3
      2 TOTAL ITERATIONS
  MAXIMUM CONCENTRATION CHANGES FOR EACH ITERATION:
  MAX. CHANGE LAYER,ROW,COL MAX. CHANGE LAYER,ROW,COL MAX. CHANGE LAYER,ROW,COL MAX. CHANGE LAYER,ROW,COL MAX. CHANGE LAYER,ROW,COL
 ------------------------------------------------------------------------------------------------------------------------------------
    0.000     (  1,  1,  1)   0.000     (  1,  1,  1)


                     STREAM MASS BUDGETS AT END OF TRANSPORT STEP  135, TIME STEP    1, STRESS PERIOD    3 FOR COMPONENT   1
                     -------------------------------------------------------------------------------------------------------

                                         CUMULATIVE MASS [M]                                     MASS FOR THIS TIME STEP [M]
                                         -------------------                                    --------------
                      STREAM DEPLETION =   1883.817                          STREAM DEPLETION =   2.845909    
                      INFLOW TO STREAM =   4078.114                          INFLOW TO STREAM =   8.325000    
                          GW TO STREAM =   364.6508                              GW TO STREAM =  0.9990391    
                         PRECIPITATION =   0.000000                             PRECIPITATION =   0.000000    
                                RUNOFF =   0.000000                                    RUNOFF =   0.000000    
                CONSTANT CONCENTRATION =   0.000000                    CONSTANT CONCENTRATION =   0.000000    
                             MASS GAIN =   0.000000                                 MASS GAIN =   0.000000    
                                         -------------------                                    --------------
                              TOTAL IN =   6326.582                                  TOTAL IN =   12.16995    

                   STREAM ACCUMULATION =   1924.823                       STREAM ACCUMULATION =  0.2712566E-03
                        STREAM OUTFLOW =   4401.776                            STREAM OUTFLOW =   12.16968    
                          STREAM TO GW =   0.000000                              STREAM TO GW =   0.000000    
                CONSTANT CONCENTRATION =   0.000000                    CONSTANT CONCENTRATION =   0.000000    
                           EVAPORATION =   0.000000                               EVAPORATION =   0.000000    
                             MASS LOSS =   0.000000                                 MASS LOSS =   0.000000    
                                         -------------------                                    --------------
                             TOTAL OUT =   6326.599                                 TOTAL OUT =   12.16995    

                        NET (IN - OUT) = -0.1660156E-01                        NET (IN - OUT) = -0.1907349E-05
                 DISCREPANCY (PERCENT) = -0.2624093E-03                 DISCREPANCY (PERCENT) = -0.1567261E-04
                                              FLOW ERR (QIN-QOUT-DV) = -0.9536743E-06 [L3/T]




 >>>>>>>>>>>>>>>>>>>>>>>>>>>>>>>>>>>>>>>>>>>>>>>>>>>>>>>FOR COMPONENT NO. 01<<<<<<<<<<<<<<<<<<<<<<<<<<<<<<<<<<<<<<<<<<<<<<<<<<<<<<<


                                            -------------------------------------------
                                                      TRANSPORT STEP NO.  135
                                            -------------------------------------------

 TOTAL ELAPSED TIME SINCE BEGINNING OF SIMULATION =   65700.00    D   
 .....................................................................

                     CUMULATIVE MASS BUDGETS AT END OF TRANSPORT STEP  135, TIME STEP    1, STRESS PERIOD    3
                     -----------------------------------------------------------------------------------------

                                                             IN                           OUT
                                                      ----------------             ----------------
                               CONSTANT CONCENTRATION:    0.000000                    0.000000    
                                        CONSTANT HEAD:    820.0867                   -455.4402    
                                               STREAM:    0.000000                   -364.6508    
                               MASS STOR (FLOW MODEL):   0.5161509E-02              -0.6986623E-07
                                MASS STORAGE (SOLUTE):    0.000000                    0.000000    
                            ---------------------------------------------------------------------------
                                              [TOTAL]:    820.0919     KG            -820.0909     KG  

                                                          NET (IN - OUT):   0.9765625E-03
                                                   DISCREPANCY (PERCENT):   0.1190797E-03
     2 CALLS TO GCG PACKAGE FOR TRANSPORT TIME STEP   136 IN FLOW TIME STEP     1 STRESS PERIOD     3
      2 TOTAL ITERATIONS
  MAXIMUM CONCENTRATION CHANGES FOR EACH ITERATION:
  MAX. CHANGE LAYER,ROW,COL MAX. CHANGE LAYER,ROW,COL MAX. CHANGE LAYER,ROW,COL MAX. CHANGE LAYER,ROW,COL MAX. CHANGE LAYER,ROW,COL
 ------------------------------------------------------------------------------------------------------------------------------------
    0.000     (  1,  1,  1)   0.000     (  1,  1,  1)


                     STREAM MASS BUDGETS AT END OF TRANSPORT STEP  136, TIME STEP    1, STRESS PERIOD    3 FOR COMPONENT   1
                     -------------------------------------------------------------------------------------------------------

                                         CUMULATIVE MASS [M]                                     MASS FOR THIS TIME STEP [M]
                                         -------------------                                    --------------
                      STREAM DEPLETION =   1886.498                          STREAM DEPLETION =   2.680808    
                      INFLOW TO STREAM =   4086.439                          INFLOW TO STREAM =   8.325000    
                          GW TO STREAM =   365.6498                              GW TO STREAM =  0.9990391    
                         PRECIPITATION =   0.000000                             PRECIPITATION =   0.000000    
                                RUNOFF =   0.000000                                    RUNOFF =   0.000000    
                CONSTANT CONCENTRATION =   0.000000                    CONSTANT CONCENTRATION =   0.000000    
                             MASS GAIN =   0.000000                                 MASS GAIN =   0.000000    
                                         -------------------                                    --------------
                              TOTAL IN =   6338.587                                  TOTAL IN =   12.00485    

                   STREAM ACCUMULATION =   1924.823                       STREAM ACCUMULATION =  0.2598289E-03
                        STREAM OUTFLOW =   4413.780                            STREAM OUTFLOW =   12.00459    
                          STREAM TO GW =   0.000000                              STREAM TO GW =   0.000000    
                CONSTANT CONCENTRATION =   0.000000                    CONSTANT CONCENTRATION =   0.000000    
                           EVAPORATION =   0.000000                               EVAPORATION =   0.000000    
                             MASS LOSS =   0.000000                                 MASS LOSS =   0.000000    
                                         -------------------                                    --------------
                             TOTAL OUT =   6338.604                                 TOTAL OUT =   12.00485    

                        NET (IN - OUT) = -0.1660156E-01                        NET (IN - OUT) = -0.1907349E-05
                 DISCREPANCY (PERCENT) = -0.2619123E-03                 DISCREPANCY (PERCENT) = -0.1588815E-04
                                              FLOW ERR (QIN-QOUT-DV) = -0.9536743E-06 [L3/T]




 >>>>>>>>>>>>>>>>>>>>>>>>>>>>>>>>>>>>>>>>>>>>>>>>>>>>>>>FOR COMPONENT NO. 01<<<<<<<<<<<<<<<<<<<<<<<<<<<<<<<<<<<<<<<<<<<<<<<<<<<<<<<


                                            -------------------------------------------
                                                      TRANSPORT STEP NO.  136
                                            -------------------------------------------

 TOTAL ELAPSED TIME SINCE BEGINNING OF SIMULATION =   65880.00    D   
 .....................................................................

                     CUMULATIVE MASS BUDGETS AT END OF TRANSPORT STEP  136, TIME STEP    1, STRESS PERIOD    3
                     -----------------------------------------------------------------------------------------

                                                             IN                           OUT
                                                      ----------------             ----------------
                               CONSTANT CONCENTRATION:    0.000000                    0.000000    
                                        CONSTANT HEAD:    822.3336                   -456.6879    
                                               STREAM:    0.000000                   -365.6498    
                               MASS STOR (FLOW MODEL):   0.5161509E-02              -0.6986623E-07
                                MASS STORAGE (SOLUTE):    0.000000                    0.000000    
                            ---------------------------------------------------------------------------
                                              [TOTAL]:    822.3387     KG            -822.3378     KG  

                                                          NET (IN - OUT):   0.9765625E-03
                                                   DISCREPANCY (PERCENT):   0.1187544E-03
     2 CALLS TO GCG PACKAGE FOR TRANSPORT TIME STEP   137 IN FLOW TIME STEP     1 STRESS PERIOD     3
      2 TOTAL ITERATIONS
  MAXIMUM CONCENTRATION CHANGES FOR EACH ITERATION:
  MAX. CHANGE LAYER,ROW,COL MAX. CHANGE LAYER,ROW,COL MAX. CHANGE LAYER,ROW,COL MAX. CHANGE LAYER,ROW,COL MAX. CHANGE LAYER,ROW,COL
 ------------------------------------------------------------------------------------------------------------------------------------
    0.000     (  1,  1,  1)   0.000     (  1,  1,  1)


                     STREAM MASS BUDGETS AT END OF TRANSPORT STEP  137, TIME STEP    1, STRESS PERIOD    3 FOR COMPONENT   1
                     -------------------------------------------------------------------------------------------------------

                                         CUMULATIVE MASS [M]                                     MASS FOR THIS TIME STEP [M]
                                         -------------------                                    --------------
                      STREAM DEPLETION =   1889.021                          STREAM DEPLETION =   2.523445    
                      INFLOW TO STREAM =   4094.764                          INFLOW TO STREAM =   8.325000    
                          GW TO STREAM =   366.6489                              GW TO STREAM =  0.9990391    
                         PRECIPITATION =   0.000000                             PRECIPITATION =   0.000000    
                                RUNOFF =   0.000000                                    RUNOFF =   0.000000    
                CONSTANT CONCENTRATION =   0.000000                    CONSTANT CONCENTRATION =   0.000000    
                             MASS GAIN =   0.000000                                 MASS GAIN =   0.000000    
                                         -------------------                                    --------------
                              TOTAL IN =   6350.435                                  TOTAL IN =   11.84748    

                   STREAM ACCUMULATION =   1924.823                       STREAM ACCUMULATION =  0.2488736E-03
                        STREAM OUTFLOW =   4425.627                            STREAM OUTFLOW =   11.84724    
                          STREAM TO GW =   0.000000                              STREAM TO GW =   0.000000    
                CONSTANT CONCENTRATION =   0.000000                    CONSTANT CONCENTRATION =   0.000000    
                           EVAPORATION =   0.000000                               EVAPORATION =   0.000000    
                             MASS LOSS =   0.000000                                 MASS LOSS =   0.000000    
                                         -------------------                                    --------------
                             TOTAL OUT =   6350.451                                 TOTAL OUT =   11.84749    

                        NET (IN - OUT) = -0.1611328E-01                        NET (IN - OUT) = -0.3814697E-05
                 DISCREPANCY (PERCENT) = -0.2537348E-03                 DISCREPANCY (PERCENT) = -0.3219837E-04
                                              FLOW ERR (QIN-QOUT-DV) = -0.9536743E-06 [L3/T]




 >>>>>>>>>>>>>>>>>>>>>>>>>>>>>>>>>>>>>>>>>>>>>>>>>>>>>>>FOR COMPONENT NO. 01<<<<<<<<<<<<<<<<<<<<<<<<<<<<<<<<<<<<<<<<<<<<<<<<<<<<<<<


                                            -------------------------------------------
                                                      TRANSPORT STEP NO.  137
                                            -------------------------------------------

 TOTAL ELAPSED TIME SINCE BEGINNING OF SIMULATION =   66060.00    D   
 .....................................................................

                     CUMULATIVE MASS BUDGETS AT END OF TRANSPORT STEP  137, TIME STEP    1, STRESS PERIOD    3
                     -----------------------------------------------------------------------------------------

                                                             IN                           OUT
                                                      ----------------             ----------------
                               CONSTANT CONCENTRATION:    0.000000                    0.000000    
                                        CONSTANT HEAD:    824.5804                   -457.9357    
                                               STREAM:    0.000000                   -366.6489    
                               MASS STOR (FLOW MODEL):   0.5161509E-02              -0.6986623E-07
                                MASS STORAGE (SOLUTE):    0.000000                    0.000000    
                            ---------------------------------------------------------------------------
                                              [TOTAL]:    824.5856     KG            -824.5846     KG  

                                                          NET (IN - OUT):   0.9765625E-03
                                                   DISCREPANCY (PERCENT):   0.1184308E-03
     2 CALLS TO GCG PACKAGE FOR TRANSPORT TIME STEP   138 IN FLOW TIME STEP     1 STRESS PERIOD     3
      2 TOTAL ITERATIONS
  MAXIMUM CONCENTRATION CHANGES FOR EACH ITERATION:
  MAX. CHANGE LAYER,ROW,COL MAX. CHANGE LAYER,ROW,COL MAX. CHANGE LAYER,ROW,COL MAX. CHANGE LAYER,ROW,COL MAX. CHANGE LAYER,ROW,COL
 ------------------------------------------------------------------------------------------------------------------------------------
    0.000     (  1,  1,  1)   0.000     (  1,  1,  1)


                     STREAM MASS BUDGETS AT END OF TRANSPORT STEP  138, TIME STEP    1, STRESS PERIOD    3 FOR COMPONENT   1
                     -------------------------------------------------------------------------------------------------------

                                         CUMULATIVE MASS [M]                                     MASS FOR THIS TIME STEP [M]
                                         -------------------                                    --------------
                      STREAM DEPLETION =   1891.395                          STREAM DEPLETION =   2.373633    
                      INFLOW TO STREAM =   4103.089                          INFLOW TO STREAM =   8.325000    
                          GW TO STREAM =   367.6479                              GW TO STREAM =  0.9990391    
                         PRECIPITATION =   0.000000                             PRECIPITATION =   0.000000    
                                RUNOFF =   0.000000                                    RUNOFF =   0.000000    
                CONSTANT CONCENTRATION =   0.000000                    CONSTANT CONCENTRATION =   0.000000    
                             MASS GAIN =   0.000000                                 MASS GAIN =   0.000000    
                                         -------------------                                    --------------
                              TOTAL IN =   6362.132                                  TOTAL IN =   11.69767    

                   STREAM ACCUMULATION =   1924.824                       STREAM ACCUMULATION =  0.2383734E-03
                        STREAM OUTFLOW =   4437.325                            STREAM OUTFLOW =   11.69743    
                          STREAM TO GW =   0.000000                              STREAM TO GW =   0.000000    
                CONSTANT CONCENTRATION =   0.000000                    CONSTANT CONCENTRATION =   0.000000    
                           EVAPORATION =   0.000000                               EVAPORATION =   0.000000    
                             MASS LOSS =   0.000000                                 MASS LOSS =   0.000000    
                                         -------------------                                    --------------
                             TOTAL OUT =   6362.148                                 TOTAL OUT =   11.69767    

                        NET (IN - OUT) = -0.1611328E-01                        NET (IN - OUT) = -0.1907349E-05
                 DISCREPANCY (PERCENT) = -0.2532682E-03                 DISCREPANCY (PERCENT) = -0.1630537E-04
                                              FLOW ERR (QIN-QOUT-DV) = -0.9536743E-06 [L3/T]




 >>>>>>>>>>>>>>>>>>>>>>>>>>>>>>>>>>>>>>>>>>>>>>>>>>>>>>>FOR COMPONENT NO. 01<<<<<<<<<<<<<<<<<<<<<<<<<<<<<<<<<<<<<<<<<<<<<<<<<<<<<<<


                                            -------------------------------------------
                                                      TRANSPORT STEP NO.  138
                                            -------------------------------------------

 TOTAL ELAPSED TIME SINCE BEGINNING OF SIMULATION =   66240.00    D   
 .....................................................................

                     CUMULATIVE MASS BUDGETS AT END OF TRANSPORT STEP  138, TIME STEP    1, STRESS PERIOD    3
                     -----------------------------------------------------------------------------------------

                                                             IN                           OUT
                                                      ----------------             ----------------
                               CONSTANT CONCENTRATION:    0.000000                    0.000000    
                                        CONSTANT HEAD:    826.8272                   -459.1835    
                                               STREAM:    0.000000                   -367.6479    
                               MASS STOR (FLOW MODEL):   0.5161509E-02              -0.6986623E-07
                                MASS STORAGE (SOLUTE):    0.000000                    0.000000    
                            ---------------------------------------------------------------------------
                                              [TOTAL]:    826.8324     KG            -826.8314     KG  

                                                          NET (IN - OUT):   0.9765625E-03
                                                   DISCREPANCY (PERCENT):   0.1181090E-03
     2 CALLS TO GCG PACKAGE FOR TRANSPORT TIME STEP   139 IN FLOW TIME STEP     1 STRESS PERIOD     3
      2 TOTAL ITERATIONS
  MAXIMUM CONCENTRATION CHANGES FOR EACH ITERATION:
  MAX. CHANGE LAYER,ROW,COL MAX. CHANGE LAYER,ROW,COL MAX. CHANGE LAYER,ROW,COL MAX. CHANGE LAYER,ROW,COL MAX. CHANGE LAYER,ROW,COL
 ------------------------------------------------------------------------------------------------------------------------------------
    0.000     (  1,  1,  1)   0.000     (  1,  1,  1)


                     STREAM MASS BUDGETS AT END OF TRANSPORT STEP  139, TIME STEP    1, STRESS PERIOD    3 FOR COMPONENT   1
                     -------------------------------------------------------------------------------------------------------

                                         CUMULATIVE MASS [M]                                     MASS FOR THIS TIME STEP [M]
                                         -------------------                                    --------------
                      STREAM DEPLETION =   1893.626                          STREAM DEPLETION =   2.231166    
                      INFLOW TO STREAM =   4111.415                          INFLOW TO STREAM =   8.325000    
                          GW TO STREAM =   368.6470                              GW TO STREAM =  0.9990391    
                         PRECIPITATION =   0.000000                             PRECIPITATION =   0.000000    
                                RUNOFF =   0.000000                                    RUNOFF =   0.000000    
                CONSTANT CONCENTRATION =   0.000000                    CONSTANT CONCENTRATION =   0.000000    
                             MASS GAIN =   0.000000                                 MASS GAIN =   0.000000    
                                         -------------------                                    --------------
                              TOTAL IN =   6373.688                                  TOTAL IN =   11.55520    

                   STREAM ACCUMULATION =   1924.824                       STREAM ACCUMULATION =  0.2283081E-03
                        STREAM OUTFLOW =   4448.880                            STREAM OUTFLOW =   11.55498    
                          STREAM TO GW =   0.000000                              STREAM TO GW =   0.000000    
                CONSTANT CONCENTRATION =   0.000000                    CONSTANT CONCENTRATION =   0.000000    
                           EVAPORATION =   0.000000                               EVAPORATION =   0.000000    
                             MASS LOSS =   0.000000                                 MASS LOSS =   0.000000    
                                         -------------------                                    --------------
                             TOTAL OUT =   6373.704                                 TOTAL OUT =   11.55521    

                        NET (IN - OUT) = -0.1611328E-01                        NET (IN - OUT) = -0.1907349E-05
                 DISCREPANCY (PERCENT) = -0.2528091E-03                 DISCREPANCY (PERCENT) = -0.1650640E-04
                                              FLOW ERR (QIN-QOUT-DV) = -0.9536743E-06 [L3/T]




 >>>>>>>>>>>>>>>>>>>>>>>>>>>>>>>>>>>>>>>>>>>>>>>>>>>>>>>FOR COMPONENT NO. 01<<<<<<<<<<<<<<<<<<<<<<<<<<<<<<<<<<<<<<<<<<<<<<<<<<<<<<<


                                            -------------------------------------------
                                                      TRANSPORT STEP NO.  139
                                            -------------------------------------------

 TOTAL ELAPSED TIME SINCE BEGINNING OF SIMULATION =   66420.00    D   
 .....................................................................

                     CUMULATIVE MASS BUDGETS AT END OF TRANSPORT STEP  139, TIME STEP    1, STRESS PERIOD    3
                     -----------------------------------------------------------------------------------------

                                                             IN                           OUT
                                                      ----------------             ----------------
                               CONSTANT CONCENTRATION:    0.000000                    0.000000    
                                        CONSTANT HEAD:    829.0740                   -460.4312    
                                               STREAM:    0.000000                   -368.6470    
                               MASS STOR (FLOW MODEL):   0.5161509E-02              -0.6986623E-07
                                MASS STORAGE (SOLUTE):    0.000000                    0.000000    
                            ---------------------------------------------------------------------------
                                              [TOTAL]:    829.0792     KG            -829.0782     KG  

                                                          NET (IN - OUT):   0.9765625E-03
                                                   DISCREPANCY (PERCENT):   0.1177889E-03
     2 CALLS TO GCG PACKAGE FOR TRANSPORT TIME STEP   140 IN FLOW TIME STEP     1 STRESS PERIOD     3
      2 TOTAL ITERATIONS
  MAXIMUM CONCENTRATION CHANGES FOR EACH ITERATION:
  MAX. CHANGE LAYER,ROW,COL MAX. CHANGE LAYER,ROW,COL MAX. CHANGE LAYER,ROW,COL MAX. CHANGE LAYER,ROW,COL MAX. CHANGE LAYER,ROW,COL
 ------------------------------------------------------------------------------------------------------------------------------------
    0.000     (  1,  1,  1)   0.000     (  1,  1,  1)


                     STREAM MASS BUDGETS AT END OF TRANSPORT STEP  140, TIME STEP    1, STRESS PERIOD    3 FOR COMPONENT   1
                     -------------------------------------------------------------------------------------------------------

                                         CUMULATIVE MASS [M]                                     MASS FOR THIS TIME STEP [M]
                                         -------------------                                    --------------
                      STREAM DEPLETION =   1895.722                          STREAM DEPLETION =   2.095833    
                      INFLOW TO STREAM =   4119.740                          INFLOW TO STREAM =   8.325000    
                          GW TO STREAM =   369.6461                              GW TO STREAM =  0.9990391    
                         PRECIPITATION =   0.000000                             PRECIPITATION =   0.000000    
                                RUNOFF =   0.000000                                    RUNOFF =   0.000000    
                CONSTANT CONCENTRATION =   0.000000                    CONSTANT CONCENTRATION =   0.000000    
                             MASS GAIN =   0.000000                                 MASS GAIN =   0.000000    
                                         -------------------                                    --------------
                              TOTAL IN =   6385.107                                  TOTAL IN =   11.41987    

                   STREAM ACCUMULATION =   1924.824                       STREAM ACCUMULATION =  0.2186602E-03
                        STREAM OUTFLOW =   4460.299                            STREAM OUTFLOW =   11.41966    
                          STREAM TO GW =   0.000000                              STREAM TO GW =   0.000000    
                CONSTANT CONCENTRATION =   0.000000                    CONSTANT CONCENTRATION =   0.000000    
                           EVAPORATION =   0.000000                               EVAPORATION =   0.000000    
                             MASS LOSS =   0.000000                                 MASS LOSS =   0.000000    
                                         -------------------                                    --------------
                             TOTAL OUT =   6385.124                                 TOTAL OUT =   11.41987    

                        NET (IN - OUT) = -0.1611328E-01                        NET (IN - OUT) = -0.1907349E-05
                 DISCREPANCY (PERCENT) = -0.2523569E-03                 DISCREPANCY (PERCENT) = -0.1670201E-04
                                              FLOW ERR (QIN-QOUT-DV) = -0.9536743E-06 [L3/T]




 >>>>>>>>>>>>>>>>>>>>>>>>>>>>>>>>>>>>>>>>>>>>>>>>>>>>>>>FOR COMPONENT NO. 01<<<<<<<<<<<<<<<<<<<<<<<<<<<<<<<<<<<<<<<<<<<<<<<<<<<<<<<


                                            -------------------------------------------
                                                      TRANSPORT STEP NO.  140
                                            -------------------------------------------

 TOTAL ELAPSED TIME SINCE BEGINNING OF SIMULATION =   66600.00    D   
 .....................................................................

                     CUMULATIVE MASS BUDGETS AT END OF TRANSPORT STEP  140, TIME STEP    1, STRESS PERIOD    3
                     -----------------------------------------------------------------------------------------

                                                             IN                           OUT
                                                      ----------------             ----------------
                               CONSTANT CONCENTRATION:    0.000000                    0.000000    
                                        CONSTANT HEAD:    831.3209                   -461.6790    
                                               STREAM:    0.000000                   -369.6461    
                               MASS STOR (FLOW MODEL):   0.5161509E-02              -0.6986623E-07
                                MASS STORAGE (SOLUTE):    0.000000                    0.000000    
                            ---------------------------------------------------------------------------
                                              [TOTAL]:    831.3260     KG            -831.3251     KG  

                                                          NET (IN - OUT):   0.9765625E-03
                                                   DISCREPANCY (PERCENT):   0.1174705E-03
     2 CALLS TO GCG PACKAGE FOR TRANSPORT TIME STEP   141 IN FLOW TIME STEP     1 STRESS PERIOD     3
      2 TOTAL ITERATIONS
  MAXIMUM CONCENTRATION CHANGES FOR EACH ITERATION:
  MAX. CHANGE LAYER,ROW,COL MAX. CHANGE LAYER,ROW,COL MAX. CHANGE LAYER,ROW,COL MAX. CHANGE LAYER,ROW,COL MAX. CHANGE LAYER,ROW,COL
 ------------------------------------------------------------------------------------------------------------------------------------
    0.000     (  1,  1,  1)   0.000     (  1,  1,  1)


                     STREAM MASS BUDGETS AT END OF TRANSPORT STEP  141, TIME STEP    1, STRESS PERIOD    3 FOR COMPONENT   1
                     -------------------------------------------------------------------------------------------------------

                                         CUMULATIVE MASS [M]                                     MASS FOR THIS TIME STEP [M]
                                         -------------------                                    --------------
                      STREAM DEPLETION =   1897.689                          STREAM DEPLETION =   1.967411    
                      INFLOW TO STREAM =   4128.065                          INFLOW TO STREAM =   8.325000    
                          GW TO STREAM =   370.6451                              GW TO STREAM =  0.9990391    
                         PRECIPITATION =   0.000000                             PRECIPITATION =   0.000000    
                                RUNOFF =   0.000000                                    RUNOFF =   0.000000    
                CONSTANT CONCENTRATION =   0.000000                    CONSTANT CONCENTRATION =   0.000000    
                             MASS GAIN =   0.000000                                 MASS GAIN =   0.000000    
                                         -------------------                                    --------------
                              TOTAL IN =   6396.399                                  TOTAL IN =   11.29145    

                   STREAM ACCUMULATION =   1924.824                       STREAM ACCUMULATION =  0.2094130E-03
                        STREAM OUTFLOW =   4471.590                            STREAM OUTFLOW =   11.29124    
                          STREAM TO GW =   0.000000                              STREAM TO GW =   0.000000    
                CONSTANT CONCENTRATION =   0.000000                    CONSTANT CONCENTRATION =   0.000000    
                           EVAPORATION =   0.000000                               EVAPORATION =   0.000000    
                             MASS LOSS =   0.000000                                 MASS LOSS =   0.000000    
                                         -------------------                                    --------------
                             TOTAL OUT =   6396.415                                 TOTAL OUT =   11.29145    

                        NET (IN - OUT) = -0.1513672E-01                        NET (IN - OUT) = -0.2861023E-05
                 DISCREPANCY (PERCENT) = -0.2366441E-03                 DISCREPANCY (PERCENT) = -0.2533796E-04
                                              FLOW ERR (QIN-QOUT-DV) = -0.9536743E-06 [L3/T]




 >>>>>>>>>>>>>>>>>>>>>>>>>>>>>>>>>>>>>>>>>>>>>>>>>>>>>>>FOR COMPONENT NO. 01<<<<<<<<<<<<<<<<<<<<<<<<<<<<<<<<<<<<<<<<<<<<<<<<<<<<<<<


                                            -------------------------------------------
                                                      TRANSPORT STEP NO.  141
                                            -------------------------------------------

 TOTAL ELAPSED TIME SINCE BEGINNING OF SIMULATION =   66780.00    D   
 .....................................................................

                     CUMULATIVE MASS BUDGETS AT END OF TRANSPORT STEP  141, TIME STEP    1, STRESS PERIOD    3
                     -----------------------------------------------------------------------------------------

                                                             IN                           OUT
                                                      ----------------             ----------------
                               CONSTANT CONCENTRATION:    0.000000                    0.000000    
                                        CONSTANT HEAD:    833.5677                   -462.9268    
                                               STREAM:    0.000000                   -370.6451    
                               MASS STOR (FLOW MODEL):   0.5161509E-02              -0.6986623E-07
                                MASS STORAGE (SOLUTE):    0.000000                    0.000000    
                            ---------------------------------------------------------------------------
                                              [TOTAL]:    833.5729     KG            -833.5719     KG  

                                                          NET (IN - OUT):   0.9765625E-03
                                                   DISCREPANCY (PERCENT):   0.1171539E-03
     2 CALLS TO GCG PACKAGE FOR TRANSPORT TIME STEP   142 IN FLOW TIME STEP     1 STRESS PERIOD     3
      2 TOTAL ITERATIONS
  MAXIMUM CONCENTRATION CHANGES FOR EACH ITERATION:
  MAX. CHANGE LAYER,ROW,COL MAX. CHANGE LAYER,ROW,COL MAX. CHANGE LAYER,ROW,COL MAX. CHANGE LAYER,ROW,COL MAX. CHANGE LAYER,ROW,COL
 ------------------------------------------------------------------------------------------------------------------------------------
    0.000     (  1,  1,  1)   0.000     (  1,  1,  1)


                     STREAM MASS BUDGETS AT END OF TRANSPORT STEP  142, TIME STEP    1, STRESS PERIOD    3 FOR COMPONENT   1
                     -------------------------------------------------------------------------------------------------------

                                         CUMULATIVE MASS [M]                                     MASS FOR THIS TIME STEP [M]
                                         -------------------                                    --------------
                      STREAM DEPLETION =   1899.535                          STREAM DEPLETION =   1.845671    
                      INFLOW TO STREAM =   4136.390                          INFLOW TO STREAM =   8.325000    
                          GW TO STREAM =   371.6442                              GW TO STREAM =  0.9990391    
                         PRECIPITATION =   0.000000                             PRECIPITATION =   0.000000    
                                RUNOFF =   0.000000                                    RUNOFF =   0.000000    
                CONSTANT CONCENTRATION =   0.000000                    CONSTANT CONCENTRATION =   0.000000    
                             MASS GAIN =   0.000000                                 MASS GAIN =   0.000000    
                                         -------------------                                    --------------
                              TOTAL IN =   6407.569                                  TOTAL IN =   11.16971    

                   STREAM ACCUMULATION =   1924.825                       STREAM ACCUMULATION =  0.2005504E-03
                        STREAM OUTFLOW =   4482.760                            STREAM OUTFLOW =   11.16951    
                          STREAM TO GW =   0.000000                              STREAM TO GW =   0.000000    
                CONSTANT CONCENTRATION =   0.000000                    CONSTANT CONCENTRATION =   0.000000    
                           EVAPORATION =   0.000000                               EVAPORATION =   0.000000    
                             MASS LOSS =   0.000000                                 MASS LOSS =   0.000000    
                                         -------------------                                    --------------
                             TOTAL OUT =   6407.584                                 TOTAL OUT =   11.16971    

                        NET (IN - OUT) = -0.1513672E-01                        NET (IN - OUT) = -0.2861023E-05
                 DISCREPANCY (PERCENT) = -0.2362315E-03                 DISCREPANCY (PERCENT) = -0.2561412E-04
                                              FLOW ERR (QIN-QOUT-DV) = -0.9536743E-06 [L3/T]




 >>>>>>>>>>>>>>>>>>>>>>>>>>>>>>>>>>>>>>>>>>>>>>>>>>>>>>>FOR COMPONENT NO. 01<<<<<<<<<<<<<<<<<<<<<<<<<<<<<<<<<<<<<<<<<<<<<<<<<<<<<<<


                                            -------------------------------------------
                                                      TRANSPORT STEP NO.  142
                                            -------------------------------------------

 TOTAL ELAPSED TIME SINCE BEGINNING OF SIMULATION =   66960.00    D   
 .....................................................................

                     CUMULATIVE MASS BUDGETS AT END OF TRANSPORT STEP  142, TIME STEP    1, STRESS PERIOD    3
                     -----------------------------------------------------------------------------------------

                                                             IN                           OUT
                                                      ----------------             ----------------
                               CONSTANT CONCENTRATION:    0.000000                    0.000000    
                                        CONSTANT HEAD:    835.8145                   -464.1746    
                                               STREAM:    0.000000                   -371.6442    
                               MASS STOR (FLOW MODEL):   0.5161509E-02              -0.6986623E-07
                                MASS STORAGE (SOLUTE):    0.000000                    0.000000    
                            ---------------------------------------------------------------------------
                                              [TOTAL]:    835.8197     KG            -835.8187     KG  

                                                          NET (IN - OUT):   0.9765625E-03
                                                   DISCREPANCY (PERCENT):   0.1168390E-03
     2 CALLS TO GCG PACKAGE FOR TRANSPORT TIME STEP   143 IN FLOW TIME STEP     1 STRESS PERIOD     3
      2 TOTAL ITERATIONS
  MAXIMUM CONCENTRATION CHANGES FOR EACH ITERATION:
  MAX. CHANGE LAYER,ROW,COL MAX. CHANGE LAYER,ROW,COL MAX. CHANGE LAYER,ROW,COL MAX. CHANGE LAYER,ROW,COL MAX. CHANGE LAYER,ROW,COL
 ------------------------------------------------------------------------------------------------------------------------------------
    0.000     (  1,  1,  1)   0.000     (  1,  1,  1)


                     STREAM MASS BUDGETS AT END OF TRANSPORT STEP  143, TIME STEP    1, STRESS PERIOD    3 FOR COMPONENT   1
                     -------------------------------------------------------------------------------------------------------

                                         CUMULATIVE MASS [M]                                     MASS FOR THIS TIME STEP [M]
                                         -------------------                                    --------------
                      STREAM DEPLETION =   1901.265                          STREAM DEPLETION =   1.730380    
                      INFLOW TO STREAM =   4144.715                          INFLOW TO STREAM =   8.325000    
                          GW TO STREAM =   372.6432                              GW TO STREAM =  0.9990391    
                         PRECIPITATION =   0.000000                             PRECIPITATION =   0.000000    
                                RUNOFF =   0.000000                                    RUNOFF =   0.000000    
                CONSTANT CONCENTRATION =   0.000000                    CONSTANT CONCENTRATION =   0.000000    
                             MASS GAIN =   0.000000                                 MASS GAIN =   0.000000    
                                         -------------------                                    --------------
                              TOTAL IN =   6418.624                                  TOTAL IN =   11.05442    

                   STREAM ACCUMULATION =   1924.825                       STREAM ACCUMULATION =  0.1920567E-03
                        STREAM OUTFLOW =   4493.814                            STREAM OUTFLOW =   11.05423    
                          STREAM TO GW =   0.000000                              STREAM TO GW =   0.000000    
                CONSTANT CONCENTRATION =   0.000000                    CONSTANT CONCENTRATION =   0.000000    
                           EVAPORATION =   0.000000                               EVAPORATION =   0.000000    
                             MASS LOSS =   0.000000                                 MASS LOSS =   0.000000    
                                         -------------------                                    --------------
                             TOTAL OUT =   6418.639                                 TOTAL OUT =   11.05442    

                        NET (IN - OUT) = -0.1464844E-01                        NET (IN - OUT) = -0.1907349E-05
                 DISCREPANCY (PERCENT) = -0.2282175E-03                 DISCREPANCY (PERCENT) = -0.1725417E-04
                                              FLOW ERR (QIN-QOUT-DV) = -0.9536743E-06 [L3/T]




 >>>>>>>>>>>>>>>>>>>>>>>>>>>>>>>>>>>>>>>>>>>>>>>>>>>>>>>FOR COMPONENT NO. 01<<<<<<<<<<<<<<<<<<<<<<<<<<<<<<<<<<<<<<<<<<<<<<<<<<<<<<<


                                            -------------------------------------------
                                                      TRANSPORT STEP NO.  143
                                            -------------------------------------------

 TOTAL ELAPSED TIME SINCE BEGINNING OF SIMULATION =   67140.00    D   
 .....................................................................

                     CUMULATIVE MASS BUDGETS AT END OF TRANSPORT STEP  143, TIME STEP    1, STRESS PERIOD    3
                     -----------------------------------------------------------------------------------------

                                                             IN                           OUT
                                                      ----------------             ----------------
                               CONSTANT CONCENTRATION:    0.000000                    0.000000    
                                        CONSTANT HEAD:    838.0613                   -465.4223    
                                               STREAM:    0.000000                   -372.6432    
                               MASS STOR (FLOW MODEL):   0.5161509E-02              -0.6986623E-07
                                MASS STORAGE (SOLUTE):    0.000000                    0.000000    
                            ---------------------------------------------------------------------------
                                              [TOTAL]:    838.0665     KG            -838.0656     KG  

                                                          NET (IN - OUT):   0.9765625E-03
                                                   DISCREPANCY (PERCENT):   0.1165257E-03
     2 CALLS TO GCG PACKAGE FOR TRANSPORT TIME STEP   144 IN FLOW TIME STEP     1 STRESS PERIOD     3
      2 TOTAL ITERATIONS
  MAXIMUM CONCENTRATION CHANGES FOR EACH ITERATION:
  MAX. CHANGE LAYER,ROW,COL MAX. CHANGE LAYER,ROW,COL MAX. CHANGE LAYER,ROW,COL MAX. CHANGE LAYER,ROW,COL MAX. CHANGE LAYER,ROW,COL
 ------------------------------------------------------------------------------------------------------------------------------------
    0.000     (  1,  1,  1)   0.000     (  1,  1,  1)


                     STREAM MASS BUDGETS AT END OF TRANSPORT STEP  144, TIME STEP    1, STRESS PERIOD    3 FOR COMPONENT   1
                     -------------------------------------------------------------------------------------------------------

                                         CUMULATIVE MASS [M]                                     MASS FOR THIS TIME STEP [M]
                                         -------------------                                    --------------
                      STREAM DEPLETION =   1902.887                          STREAM DEPLETION =   1.621300    
                      INFLOW TO STREAM =   4153.041                          INFLOW TO STREAM =   8.325000    
                          GW TO STREAM =   373.6423                              GW TO STREAM =  0.9990391    
                         PRECIPITATION =   0.000000                             PRECIPITATION =   0.000000    
                                RUNOFF =   0.000000                                    RUNOFF =   0.000000    
                CONSTANT CONCENTRATION =   0.000000                    CONSTANT CONCENTRATION =   0.000000    
                             MASS GAIN =   0.000000                                 MASS GAIN =   0.000000    
                                         -------------------                                    --------------
                              TOTAL IN =   6429.569                                  TOTAL IN =   10.94534    

                   STREAM ACCUMULATION =   1924.825                       STREAM ACCUMULATION =  0.1839169E-03
                        STREAM OUTFLOW =   4504.759                            STREAM OUTFLOW =   10.94516    
                          STREAM TO GW =   0.000000                              STREAM TO GW =   0.000000    
                CONSTANT CONCENTRATION =   0.000000                    CONSTANT CONCENTRATION =   0.000000    
                           EVAPORATION =   0.000000                               EVAPORATION =   0.000000    
                             MASS LOSS =   0.000000                                 MASS LOSS =   0.000000    
                                         -------------------                                    --------------
                             TOTAL OUT =   6429.584                                 TOTAL OUT =   10.94534    

                        NET (IN - OUT) = -0.1513672E-01                        NET (IN - OUT) = -0.2861023E-05
                 DISCREPANCY (PERCENT) = -0.2354232E-03                 DISCREPANCY (PERCENT) = -0.2613919E-04
                                              FLOW ERR (QIN-QOUT-DV) = -0.9536743E-06 [L3/T]




 >>>>>>>>>>>>>>>>>>>>>>>>>>>>>>>>>>>>>>>>>>>>>>>>>>>>>>>FOR COMPONENT NO. 01<<<<<<<<<<<<<<<<<<<<<<<<<<<<<<<<<<<<<<<<<<<<<<<<<<<<<<<


                                            -------------------------------------------
                                                      TRANSPORT STEP NO.  144
                                            -------------------------------------------

 TOTAL ELAPSED TIME SINCE BEGINNING OF SIMULATION =   67320.00    D   
 .....................................................................

                     CUMULATIVE MASS BUDGETS AT END OF TRANSPORT STEP  144, TIME STEP    1, STRESS PERIOD    3
                     -----------------------------------------------------------------------------------------

                                                             IN                           OUT
                                                      ----------------             ----------------
                               CONSTANT CONCENTRATION:    0.000000                    0.000000    
                                        CONSTANT HEAD:    840.3082                   -466.6701    
                                               STREAM:    0.000000                   -373.6423    
                               MASS STOR (FLOW MODEL):   0.5161509E-02              -0.6986623E-07
                                MASS STORAGE (SOLUTE):    0.000000                    0.000000    
                            ---------------------------------------------------------------------------
                                              [TOTAL]:    840.3134     KG            -840.3124     KG  

                                                          NET (IN - OUT):   0.9765625E-03
                                                   DISCREPANCY (PERCENT):   0.1162142E-03
     2 CALLS TO GCG PACKAGE FOR TRANSPORT TIME STEP   145 IN FLOW TIME STEP     1 STRESS PERIOD     3
      2 TOTAL ITERATIONS
  MAXIMUM CONCENTRATION CHANGES FOR EACH ITERATION:
  MAX. CHANGE LAYER,ROW,COL MAX. CHANGE LAYER,ROW,COL MAX. CHANGE LAYER,ROW,COL MAX. CHANGE LAYER,ROW,COL MAX. CHANGE LAYER,ROW,COL
 ------------------------------------------------------------------------------------------------------------------------------------
    0.000     (  1,  1,  1)   0.000     (  1,  1,  1)


                     STREAM MASS BUDGETS AT END OF TRANSPORT STEP  145, TIME STEP    1, STRESS PERIOD    3 FOR COMPONENT   1
                     -------------------------------------------------------------------------------------------------------

                                         CUMULATIVE MASS [M]                                     MASS FOR THIS TIME STEP [M]
                                         -------------------                                    --------------
                      STREAM DEPLETION =   1904.405                          STREAM DEPLETION =   1.518192    
                      INFLOW TO STREAM =   4161.366                          INFLOW TO STREAM =   8.325000    
                          GW TO STREAM =   374.6413                              GW TO STREAM =  0.9990391    
                         PRECIPITATION =   0.000000                             PRECIPITATION =   0.000000    
                                RUNOFF =   0.000000                                    RUNOFF =   0.000000    
                CONSTANT CONCENTRATION =   0.000000                    CONSTANT CONCENTRATION =   0.000000    
                             MASS GAIN =   0.000000                                 MASS GAIN =   0.000000    
                                         -------------------                                    --------------
                              TOTAL IN =   6440.412                                  TOTAL IN =   10.84223    

                   STREAM ACCUMULATION =   1924.825                       STREAM ACCUMULATION =  0.1761169E-03
                        STREAM OUTFLOW =   4515.602                            STREAM OUTFLOW =   10.84206    
                          STREAM TO GW =   0.000000                              STREAM TO GW =   0.000000    
                CONSTANT CONCENTRATION =   0.000000                    CONSTANT CONCENTRATION =   0.000000    
                           EVAPORATION =   0.000000                               EVAPORATION =   0.000000    
                             MASS LOSS =   0.000000                                 MASS LOSS =   0.000000    
                                         -------------------                                    --------------
                             TOTAL OUT =   6440.427                                 TOTAL OUT =   10.84223    

                        NET (IN - OUT) = -0.1464844E-01                        NET (IN - OUT) = -0.2861023E-05
                 DISCREPANCY (PERCENT) = -0.2274454E-03                 DISCREPANCY (PERCENT) = -0.2638777E-04
                                              FLOW ERR (QIN-QOUT-DV) = -0.9536743E-06 [L3/T]




 >>>>>>>>>>>>>>>>>>>>>>>>>>>>>>>>>>>>>>>>>>>>>>>>>>>>>>>FOR COMPONENT NO. 01<<<<<<<<<<<<<<<<<<<<<<<<<<<<<<<<<<<<<<<<<<<<<<<<<<<<<<<


                                            -------------------------------------------
                                                      TRANSPORT STEP NO.  145
                                            -------------------------------------------

 TOTAL ELAPSED TIME SINCE BEGINNING OF SIMULATION =   67500.00    D   
 .....................................................................

                     CUMULATIVE MASS BUDGETS AT END OF TRANSPORT STEP  145, TIME STEP    1, STRESS PERIOD    3
                     -----------------------------------------------------------------------------------------

                                                             IN                           OUT
                                                      ----------------             ----------------
                               CONSTANT CONCENTRATION:    0.000000                    0.000000    
                                        CONSTANT HEAD:    842.5550                   -467.9179    
                                               STREAM:    0.000000                   -374.6413    
                               MASS STOR (FLOW MODEL):   0.5161509E-02              -0.6986623E-07
                                MASS STORAGE (SOLUTE):    0.000000                    0.000000    
                            ---------------------------------------------------------------------------
                                              [TOTAL]:    842.5602     KG            -842.5592     KG  

                                                          NET (IN - OUT):   0.9765625E-03
                                                   DISCREPANCY (PERCENT):   0.1159043E-03
     2 CALLS TO GCG PACKAGE FOR TRANSPORT TIME STEP   146 IN FLOW TIME STEP     1 STRESS PERIOD     3
      2 TOTAL ITERATIONS
  MAXIMUM CONCENTRATION CHANGES FOR EACH ITERATION:
  MAX. CHANGE LAYER,ROW,COL MAX. CHANGE LAYER,ROW,COL MAX. CHANGE LAYER,ROW,COL MAX. CHANGE LAYER,ROW,COL MAX. CHANGE LAYER,ROW,COL
 ------------------------------------------------------------------------------------------------------------------------------------
    0.000     (  1,  1,  1)   0.000     (  1,  1,  1)


                     STREAM MASS BUDGETS AT END OF TRANSPORT STEP  146, TIME STEP    1, STRESS PERIOD    3 FOR COMPONENT   1
                     -------------------------------------------------------------------------------------------------------

                                         CUMULATIVE MASS [M]                                     MASS FOR THIS TIME STEP [M]
                                         -------------------                                    --------------
                      STREAM DEPLETION =   1905.826                          STREAM DEPLETION =   1.420817    
                      INFLOW TO STREAM =   4169.691                          INFLOW TO STREAM =   8.325000    
                          GW TO STREAM =   375.6404                              GW TO STREAM =  0.9990391    
                         PRECIPITATION =   0.000000                             PRECIPITATION =   0.000000    
                                RUNOFF =   0.000000                                    RUNOFF =   0.000000    
                CONSTANT CONCENTRATION =   0.000000                    CONSTANT CONCENTRATION =   0.000000    
                             MASS GAIN =   0.000000                                 MASS GAIN =   0.000000    
                                         -------------------                                    --------------
                              TOTAL IN =   6451.157                                  TOTAL IN =   10.74486    

                   STREAM ACCUMULATION =   1924.825                       STREAM ACCUMULATION =  0.1686427E-03
                        STREAM OUTFLOW =   4526.346                            STREAM OUTFLOW =   10.74469    
                          STREAM TO GW =   0.000000                              STREAM TO GW =   0.000000    
                CONSTANT CONCENTRATION =   0.000000                    CONSTANT CONCENTRATION =   0.000000    
                           EVAPORATION =   0.000000                               EVAPORATION =   0.000000    
                             MASS LOSS =   0.000000                                 MASS LOSS =   0.000000    
                                         -------------------                                    --------------
                             TOTAL OUT =   6451.171                                 TOTAL OUT =   10.74486    

                        NET (IN - OUT) = -0.1416016E-01                        NET (IN - OUT) = -0.2861023E-05
                 DISCREPANCY (PERCENT) = -0.2194977E-03                 DISCREPANCY (PERCENT) = -0.2662690E-04
                                              FLOW ERR (QIN-QOUT-DV) = -0.9536743E-06 [L3/T]




 >>>>>>>>>>>>>>>>>>>>>>>>>>>>>>>>>>>>>>>>>>>>>>>>>>>>>>>FOR COMPONENT NO. 01<<<<<<<<<<<<<<<<<<<<<<<<<<<<<<<<<<<<<<<<<<<<<<<<<<<<<<<


                                            -------------------------------------------
                                                      TRANSPORT STEP NO.  146
                                            -------------------------------------------

 TOTAL ELAPSED TIME SINCE BEGINNING OF SIMULATION =   67680.00    D   
 .....................................................................

                     CUMULATIVE MASS BUDGETS AT END OF TRANSPORT STEP  146, TIME STEP    1, STRESS PERIOD    3
                     -----------------------------------------------------------------------------------------

                                                             IN                           OUT
                                                      ----------------             ----------------
                               CONSTANT CONCENTRATION:    0.000000                    0.000000    
                                        CONSTANT HEAD:    844.8018                   -469.1656    
                                               STREAM:    0.000000                   -375.6404    
                               MASS STOR (FLOW MODEL):   0.5161509E-02              -0.6986623E-07
                                MASS STORAGE (SOLUTE):    0.000000                    0.000000    
                            ---------------------------------------------------------------------------
                                              [TOTAL]:    844.8070     KG            -844.8060     KG  

                                                          NET (IN - OUT):   0.9765625E-03
                                                   DISCREPANCY (PERCENT):   0.1155960E-03
     2 CALLS TO GCG PACKAGE FOR TRANSPORT TIME STEP   147 IN FLOW TIME STEP     1 STRESS PERIOD     3
      2 TOTAL ITERATIONS
  MAXIMUM CONCENTRATION CHANGES FOR EACH ITERATION:
  MAX. CHANGE LAYER,ROW,COL MAX. CHANGE LAYER,ROW,COL MAX. CHANGE LAYER,ROW,COL MAX. CHANGE LAYER,ROW,COL MAX. CHANGE LAYER,ROW,COL
 ------------------------------------------------------------------------------------------------------------------------------------
    0.000     (  1,  1,  1)   0.000     (  1,  1,  1)


                     STREAM MASS BUDGETS AT END OF TRANSPORT STEP  147, TIME STEP    1, STRESS PERIOD    3 FOR COMPONENT   1
                     -------------------------------------------------------------------------------------------------------

                                         CUMULATIVE MASS [M]                                     MASS FOR THIS TIME STEP [M]
                                         -------------------                                    --------------
                      STREAM DEPLETION =   1907.155                          STREAM DEPLETION =   1.328937    
                      INFLOW TO STREAM =   4178.016                          INFLOW TO STREAM =   8.325000    
                          GW TO STREAM =   376.6394                              GW TO STREAM =  0.9990391    
                         PRECIPITATION =   0.000000                             PRECIPITATION =   0.000000    
                                RUNOFF =   0.000000                                    RUNOFF =   0.000000    
                CONSTANT CONCENTRATION =   0.000000                    CONSTANT CONCENTRATION =   0.000000    
                             MASS GAIN =   0.000000                                 MASS GAIN =   0.000000    
                                         -------------------                                    --------------
                              TOTAL IN =   6461.811                                  TOTAL IN =   10.65298    

                   STREAM ACCUMULATION =   1924.825                       STREAM ACCUMULATION =  0.1614811E-03
                        STREAM OUTFLOW =   4536.999                            STREAM OUTFLOW =   10.65282    
                          STREAM TO GW =   0.000000                              STREAM TO GW =   0.000000    
                CONSTANT CONCENTRATION =   0.000000                    CONSTANT CONCENTRATION =   0.000000    
                           EVAPORATION =   0.000000                               EVAPORATION =   0.000000    
                             MASS LOSS =   0.000000                                 MASS LOSS =   0.000000    
                                         -------------------                                    --------------
                             TOTAL OUT =   6461.824                                 TOTAL OUT =   10.65298    

                        NET (IN - OUT) = -0.1367188E-01                        NET (IN - OUT) = -0.1907349E-05
                 DISCREPANCY (PERCENT) = -0.2115794E-03                 DISCREPANCY (PERCENT) = -0.1790437E-04
                                              FLOW ERR (QIN-QOUT-DV) = -0.9536743E-06 [L3/T]




 >>>>>>>>>>>>>>>>>>>>>>>>>>>>>>>>>>>>>>>>>>>>>>>>>>>>>>>FOR COMPONENT NO. 01<<<<<<<<<<<<<<<<<<<<<<<<<<<<<<<<<<<<<<<<<<<<<<<<<<<<<<<


                                            -------------------------------------------
                                                      TRANSPORT STEP NO.  147
                                            -------------------------------------------

 TOTAL ELAPSED TIME SINCE BEGINNING OF SIMULATION =   67860.00    D   
 .....................................................................

                     CUMULATIVE MASS BUDGETS AT END OF TRANSPORT STEP  147, TIME STEP    1, STRESS PERIOD    3
                     -----------------------------------------------------------------------------------------

                                                             IN                           OUT
                                                      ----------------             ----------------
                               CONSTANT CONCENTRATION:    0.000000                    0.000000    
                                        CONSTANT HEAD:    847.0486                   -470.4134    
                                               STREAM:    0.000000                   -376.6394    
                               MASS STOR (FLOW MODEL):   0.5161509E-02              -0.6986623E-07
                                MASS STORAGE (SOLUTE):    0.000000                    0.000000    
                            ---------------------------------------------------------------------------
                                              [TOTAL]:    847.0538     KG            -847.0529     KG  

                                                          NET (IN - OUT):   0.9765625E-03
                                                   DISCREPANCY (PERCENT):   0.1152894E-03
     2 CALLS TO GCG PACKAGE FOR TRANSPORT TIME STEP   148 IN FLOW TIME STEP     1 STRESS PERIOD     3
      2 TOTAL ITERATIONS
  MAXIMUM CONCENTRATION CHANGES FOR EACH ITERATION:
  MAX. CHANGE LAYER,ROW,COL MAX. CHANGE LAYER,ROW,COL MAX. CHANGE LAYER,ROW,COL MAX. CHANGE LAYER,ROW,COL MAX. CHANGE LAYER,ROW,COL
 ------------------------------------------------------------------------------------------------------------------------------------
    0.000     (  1,  1,  1)   0.000     (  1,  1,  1)


                     STREAM MASS BUDGETS AT END OF TRANSPORT STEP  148, TIME STEP    1, STRESS PERIOD    3 FOR COMPONENT   1
                     -------------------------------------------------------------------------------------------------------

                                         CUMULATIVE MASS [M]                                     MASS FOR THIS TIME STEP [M]
                                         -------------------                                    --------------
                      STREAM DEPLETION =   1908.397                          STREAM DEPLETION =   1.242315    
                      INFLOW TO STREAM =   4186.341                          INFLOW TO STREAM =   8.325000    
                          GW TO STREAM =   377.6385                              GW TO STREAM =  0.9990391    
                         PRECIPITATION =   0.000000                             PRECIPITATION =   0.000000    
                                RUNOFF =   0.000000                                    RUNOFF =   0.000000    
                CONSTANT CONCENTRATION =   0.000000                    CONSTANT CONCENTRATION =   0.000000    
                             MASS GAIN =   0.000000                                 MASS GAIN =   0.000000    
                                         -------------------                                    --------------
                              TOTAL IN =   6472.377                                  TOTAL IN =   10.56635    

                   STREAM ACCUMULATION =   1924.826                       STREAM ACCUMULATION =  0.1546212E-03
                        STREAM OUTFLOW =   4547.565                            STREAM OUTFLOW =   10.56620    
                          STREAM TO GW =   0.000000                              STREAM TO GW =   0.000000    
                CONSTANT CONCENTRATION =   0.000000                    CONSTANT CONCENTRATION =   0.000000    
                           EVAPORATION =   0.000000                               EVAPORATION =   0.000000    
                             MASS LOSS =   0.000000                                 MASS LOSS =   0.000000    
                                         -------------------                                    --------------
                             TOTAL OUT =   6472.391                                 TOTAL OUT =   10.56635    

                        NET (IN - OUT) = -0.1416016E-01                        NET (IN - OUT) = -0.1907349E-05
                 DISCREPANCY (PERCENT) = -0.2187781E-03                 DISCREPANCY (PERCENT) = -0.1805115E-04
                                              FLOW ERR (QIN-QOUT-DV) = -0.9536743E-06 [L3/T]




 >>>>>>>>>>>>>>>>>>>>>>>>>>>>>>>>>>>>>>>>>>>>>>>>>>>>>>>FOR COMPONENT NO. 01<<<<<<<<<<<<<<<<<<<<<<<<<<<<<<<<<<<<<<<<<<<<<<<<<<<<<<<


                                            -------------------------------------------
                                                      TRANSPORT STEP NO.  148
                                            -------------------------------------------

 TOTAL ELAPSED TIME SINCE BEGINNING OF SIMULATION =   68040.00    D   
 .....................................................................

                     CUMULATIVE MASS BUDGETS AT END OF TRANSPORT STEP  148, TIME STEP    1, STRESS PERIOD    3
                     -----------------------------------------------------------------------------------------

                                                             IN                           OUT
                                                      ----------------             ----------------
                               CONSTANT CONCENTRATION:    0.000000                    0.000000    
                                        CONSTANT HEAD:    849.2955                   -471.6612    
                                               STREAM:    0.000000                   -377.6385    
                               MASS STOR (FLOW MODEL):   0.5161509E-02              -0.6986623E-07
                                MASS STORAGE (SOLUTE):    0.000000                    0.000000    
                            ---------------------------------------------------------------------------
                                              [TOTAL]:    849.3007     KG            -849.2997     KG  

                                                          NET (IN - OUT):   0.9765625E-03
                                                   DISCREPANCY (PERCENT):   0.1149844E-03
     2 CALLS TO GCG PACKAGE FOR TRANSPORT TIME STEP   149 IN FLOW TIME STEP     1 STRESS PERIOD     3
      2 TOTAL ITERATIONS
  MAXIMUM CONCENTRATION CHANGES FOR EACH ITERATION:
  MAX. CHANGE LAYER,ROW,COL MAX. CHANGE LAYER,ROW,COL MAX. CHANGE LAYER,ROW,COL MAX. CHANGE LAYER,ROW,COL MAX. CHANGE LAYER,ROW,COL
 ------------------------------------------------------------------------------------------------------------------------------------
    0.000     (  1,  1,  1)   0.000     (  1,  1,  1)


                     STREAM MASS BUDGETS AT END OF TRANSPORT STEP  149, TIME STEP    1, STRESS PERIOD    3 FOR COMPONENT   1
                     -------------------------------------------------------------------------------------------------------

                                         CUMULATIVE MASS [M]                                     MASS FOR THIS TIME STEP [M]
                                         -------------------                                    --------------
                      STREAM DEPLETION =   1909.558                          STREAM DEPLETION =   1.160716    
                      INFLOW TO STREAM =   4194.667                          INFLOW TO STREAM =   8.325000    
                          GW TO STREAM =   378.6375                              GW TO STREAM =  0.9990391    
                         PRECIPITATION =   0.000000                             PRECIPITATION =   0.000000    
                                RUNOFF =   0.000000                                    RUNOFF =   0.000000    
                CONSTANT CONCENTRATION =   0.000000                    CONSTANT CONCENTRATION =   0.000000    
                             MASS GAIN =   0.000000                                 MASS GAIN =   0.000000    
                                         -------------------                                    --------------
                              TOTAL IN =   6482.862                                  TOTAL IN =   10.48475    

                   STREAM ACCUMULATION =   1924.826                       STREAM ACCUMULATION =  0.1481022E-03
                        STREAM OUTFLOW =   4558.050                            STREAM OUTFLOW =   10.48461    
                          STREAM TO GW =   0.000000                              STREAM TO GW =   0.000000    
                CONSTANT CONCENTRATION =   0.000000                    CONSTANT CONCENTRATION =   0.000000    
                           EVAPORATION =   0.000000                               EVAPORATION =   0.000000    
                             MASS LOSS =   0.000000                                 MASS LOSS =   0.000000    
                                         -------------------                                    --------------
                             TOTAL OUT =   6482.875                                 TOTAL OUT =   10.48476    

                        NET (IN - OUT) = -0.1367188E-01                        NET (IN - OUT) = -0.1907349E-05
                 DISCREPANCY (PERCENT) = -0.2108924E-03                 DISCREPANCY (PERCENT) = -0.1819164E-04
                                              FLOW ERR (QIN-QOUT-DV) = -0.9536743E-06 [L3/T]




 >>>>>>>>>>>>>>>>>>>>>>>>>>>>>>>>>>>>>>>>>>>>>>>>>>>>>>>FOR COMPONENT NO. 01<<<<<<<<<<<<<<<<<<<<<<<<<<<<<<<<<<<<<<<<<<<<<<<<<<<<<<<


                                            -------------------------------------------
                                                      TRANSPORT STEP NO.  149
                                            -------------------------------------------

 TOTAL ELAPSED TIME SINCE BEGINNING OF SIMULATION =   68220.00    D   
 .....................................................................

                     CUMULATIVE MASS BUDGETS AT END OF TRANSPORT STEP  149, TIME STEP    1, STRESS PERIOD    3
                     -----------------------------------------------------------------------------------------

                                                             IN                           OUT
                                                      ----------------             ----------------
                               CONSTANT CONCENTRATION:    0.000000                    0.000000    
                                        CONSTANT HEAD:    851.5423                   -472.9090    
                                               STREAM:    0.000000                   -378.6375    
                               MASS STOR (FLOW MODEL):   0.5161509E-02              -0.6986623E-07
                                MASS STORAGE (SOLUTE):    0.000000                    0.000000    
                            ---------------------------------------------------------------------------
                                              [TOTAL]:    851.5475     KG            -851.5465     KG  

                                                          NET (IN - OUT):   0.9765625E-03
                                                   DISCREPANCY (PERCENT):   0.1146810E-03
     2 CALLS TO GCG PACKAGE FOR TRANSPORT TIME STEP   150 IN FLOW TIME STEP     1 STRESS PERIOD     3
      2 TOTAL ITERATIONS
  MAXIMUM CONCENTRATION CHANGES FOR EACH ITERATION:
  MAX. CHANGE LAYER,ROW,COL MAX. CHANGE LAYER,ROW,COL MAX. CHANGE LAYER,ROW,COL MAX. CHANGE LAYER,ROW,COL MAX. CHANGE LAYER,ROW,COL
 ------------------------------------------------------------------------------------------------------------------------------------
    0.000     (  1,  1,  1)   0.000     (  1,  1,  1)


                     STREAM MASS BUDGETS AT END OF TRANSPORT STEP  150, TIME STEP    1, STRESS PERIOD    3 FOR COMPONENT   1
                     -------------------------------------------------------------------------------------------------------

                                         CUMULATIVE MASS [M]                                     MASS FOR THIS TIME STEP [M]
                                         -------------------                                    --------------
                      STREAM DEPLETION =   1910.642                          STREAM DEPLETION =   1.083910    
                      INFLOW TO STREAM =   4202.992                          INFLOW TO STREAM =   8.325000    
                          GW TO STREAM =   379.6366                              GW TO STREAM =  0.9990391    
                         PRECIPITATION =   0.000000                             PRECIPITATION =   0.000000    
                                RUNOFF =   0.000000                                    RUNOFF =   0.000000    
                CONSTANT CONCENTRATION =   0.000000                    CONSTANT CONCENTRATION =   0.000000    
                             MASS GAIN =   0.000000                                 MASS GAIN =   0.000000    
                                         -------------------                                    --------------
                              TOTAL IN =   6493.270                                  TOTAL IN =   10.40795    

                   STREAM ACCUMULATION =   1924.826                       STREAM ACCUMULATION =  0.1418878E-03
                        STREAM OUTFLOW =   4568.458                            STREAM OUTFLOW =   10.40781    
                          STREAM TO GW =   0.000000                              STREAM TO GW =   0.000000    
                CONSTANT CONCENTRATION =   0.000000                    CONSTANT CONCENTRATION =   0.000000    
                           EVAPORATION =   0.000000                               EVAPORATION =   0.000000    
                             MASS LOSS =   0.000000                                 MASS LOSS =   0.000000    
                                         -------------------                                    --------------
                             TOTAL OUT =   6493.283                                 TOTAL OUT =   10.40795    

                        NET (IN - OUT) = -0.1318359E-01                        NET (IN - OUT) = -0.2861023E-05
                 DISCREPANCY (PERCENT) = -0.2030345E-03                 DISCREPANCY (PERCENT) = -0.2748882E-04
                                              FLOW ERR (QIN-QOUT-DV) = -0.9536743E-06 [L3/T]




 >>>>>>>>>>>>>>>>>>>>>>>>>>>>>>>>>>>>>>>>>>>>>>>>>>>>>>>FOR COMPONENT NO. 01<<<<<<<<<<<<<<<<<<<<<<<<<<<<<<<<<<<<<<<<<<<<<<<<<<<<<<<


                                            -------------------------------------------
                                                      TRANSPORT STEP NO.  150
                                            -------------------------------------------

 TOTAL ELAPSED TIME SINCE BEGINNING OF SIMULATION =   68400.00    D   
 .....................................................................

                     CUMULATIVE MASS BUDGETS AT END OF TRANSPORT STEP  150, TIME STEP    1, STRESS PERIOD    3
                     -----------------------------------------------------------------------------------------

                                                             IN                           OUT
                                                      ----------------             ----------------
                               CONSTANT CONCENTRATION:    0.000000                    0.000000    
                                        CONSTANT HEAD:    853.7891                   -474.1567    
                                               STREAM:    0.000000                   -379.6366    
                               MASS STOR (FLOW MODEL):   0.5161509E-02              -0.6986623E-07
                                MASS STORAGE (SOLUTE):    0.000000                    0.000000    
                            ---------------------------------------------------------------------------
                                              [TOTAL]:    853.7943     KG            -853.7933     KG  

                                                          NET (IN - OUT):   0.9765625E-03
                                                   DISCREPANCY (PERCENT):   0.1143792E-03
     2 CALLS TO GCG PACKAGE FOR TRANSPORT TIME STEP   151 IN FLOW TIME STEP     1 STRESS PERIOD     3
      2 TOTAL ITERATIONS
  MAXIMUM CONCENTRATION CHANGES FOR EACH ITERATION:
  MAX. CHANGE LAYER,ROW,COL MAX. CHANGE LAYER,ROW,COL MAX. CHANGE LAYER,ROW,COL MAX. CHANGE LAYER,ROW,COL MAX. CHANGE LAYER,ROW,COL
 ------------------------------------------------------------------------------------------------------------------------------------
    0.000     (  1,  1,  1)   0.000     (  1,  1,  1)


                     STREAM MASS BUDGETS AT END OF TRANSPORT STEP  151, TIME STEP    1, STRESS PERIOD    3 FOR COMPONENT   1
                     -------------------------------------------------------------------------------------------------------

                                         CUMULATIVE MASS [M]                                     MASS FOR THIS TIME STEP [M]
                                         -------------------                                    --------------
                      STREAM DEPLETION =   1911.653                          STREAM DEPLETION =   1.011673    
                      INFLOW TO STREAM =   4211.317                          INFLOW TO STREAM =   8.325000    
                          GW TO STREAM =   380.6357                              GW TO STREAM =  0.9990391    
                         PRECIPITATION =   0.000000                             PRECIPITATION =   0.000000    
                                RUNOFF =   0.000000                                    RUNOFF =   0.000000    
                CONSTANT CONCENTRATION =   0.000000                    CONSTANT CONCENTRATION =   0.000000    
                             MASS GAIN =   0.000000                                 MASS GAIN =   0.000000    
                                         -------------------                                    --------------
                              TOTAL IN =   6503.606                                  TOTAL IN =   10.33571    

                   STREAM ACCUMULATION =   1924.826                       STREAM ACCUMULATION =  0.1359302E-03
                        STREAM OUTFLOW =   4578.793                            STREAM OUTFLOW =   10.33558    
                          STREAM TO GW =   0.000000                              STREAM TO GW =   0.000000    
                CONSTANT CONCENTRATION =   0.000000                    CONSTANT CONCENTRATION =   0.000000    
                           EVAPORATION =   0.000000                               EVAPORATION =   0.000000    
                             MASS LOSS =   0.000000                                 MASS LOSS =   0.000000    
                                         -------------------                                    --------------
                             TOTAL OUT =   6503.619                                 TOTAL OUT =   10.33571    

                        NET (IN - OUT) = -0.1318359E-01                        NET (IN - OUT) = -0.2861023E-05
                 DISCREPANCY (PERCENT) = -0.2027119E-03                 DISCREPANCY (PERCENT) = -0.2768095E-04
                                              FLOW ERR (QIN-QOUT-DV) = -0.9536743E-06 [L3/T]




 >>>>>>>>>>>>>>>>>>>>>>>>>>>>>>>>>>>>>>>>>>>>>>>>>>>>>>>FOR COMPONENT NO. 01<<<<<<<<<<<<<<<<<<<<<<<<<<<<<<<<<<<<<<<<<<<<<<<<<<<<<<<


                                            -------------------------------------------
                                                      TRANSPORT STEP NO.  151
                                            -------------------------------------------

 TOTAL ELAPSED TIME SINCE BEGINNING OF SIMULATION =   68580.00    D   
 .....................................................................

                     CUMULATIVE MASS BUDGETS AT END OF TRANSPORT STEP  151, TIME STEP    1, STRESS PERIOD    3
                     -----------------------------------------------------------------------------------------

                                                             IN                           OUT
                                                      ----------------             ----------------
                               CONSTANT CONCENTRATION:    0.000000                    0.000000    
                                        CONSTANT HEAD:    856.0359                   -475.4045    
                                               STREAM:    0.000000                   -380.6357    
                               MASS STOR (FLOW MODEL):   0.5161509E-02              -0.6986623E-07
                                MASS STORAGE (SOLUTE):    0.000000                    0.000000    
                            ---------------------------------------------------------------------------
                                              [TOTAL]:    856.0411     KG            -856.0402     KG  

                                                          NET (IN - OUT):   0.9765625E-03
                                                   DISCREPANCY (PERCENT):   0.1140790E-03
     2 CALLS TO GCG PACKAGE FOR TRANSPORT TIME STEP   152 IN FLOW TIME STEP     1 STRESS PERIOD     3
      2 TOTAL ITERATIONS
  MAXIMUM CONCENTRATION CHANGES FOR EACH ITERATION:
  MAX. CHANGE LAYER,ROW,COL MAX. CHANGE LAYER,ROW,COL MAX. CHANGE LAYER,ROW,COL MAX. CHANGE LAYER,ROW,COL MAX. CHANGE LAYER,ROW,COL
 ------------------------------------------------------------------------------------------------------------------------------------
    0.000     (  1,  1,  1)   0.000     (  1,  1,  1)


                     STREAM MASS BUDGETS AT END OF TRANSPORT STEP  152, TIME STEP    1, STRESS PERIOD    3 FOR COMPONENT   1
                     -------------------------------------------------------------------------------------------------------

                                         CUMULATIVE MASS [M]                                     MASS FOR THIS TIME STEP [M]
                                         -------------------                                    --------------
                      STREAM DEPLETION =   1912.597                          STREAM DEPLETION =  0.9437824    
                      INFLOW TO STREAM =   4219.642                          INFLOW TO STREAM =   8.325000    
                          GW TO STREAM =   381.6347                              GW TO STREAM =  0.9990391    
                         PRECIPITATION =   0.000000                             PRECIPITATION =   0.000000    
                                RUNOFF =   0.000000                                    RUNOFF =   0.000000    
                CONSTANT CONCENTRATION =   0.000000                    CONSTANT CONCENTRATION =   0.000000    
                             MASS GAIN =   0.000000                                 MASS GAIN =   0.000000    
                                         -------------------                                    --------------
                              TOTAL IN =   6513.874                                  TOTAL IN =   10.26782    

                   STREAM ACCUMULATION =   1924.826                       STREAM ACCUMULATION =  0.1302191E-03
                        STREAM OUTFLOW =   4589.061                            STREAM OUTFLOW =   10.26769    
                          STREAM TO GW =   0.000000                              STREAM TO GW =   0.000000    
                CONSTANT CONCENTRATION =   0.000000                    CONSTANT CONCENTRATION =   0.000000    
                           EVAPORATION =   0.000000                               EVAPORATION =   0.000000    
                             MASS LOSS =   0.000000                                 MASS LOSS =   0.000000    
                                         -------------------                                    --------------
                             TOTAL OUT =   6513.887                                 TOTAL OUT =   10.26782    

                        NET (IN - OUT) = -0.1269531E-01                        NET (IN - OUT) = -0.2861023E-05
                 DISCREPANCY (PERCENT) = -0.1948963E-03                 DISCREPANCY (PERCENT) = -0.2786397E-04
                                              FLOW ERR (QIN-QOUT-DV) = -0.9536743E-06 [L3/T]




 >>>>>>>>>>>>>>>>>>>>>>>>>>>>>>>>>>>>>>>>>>>>>>>>>>>>>>>FOR COMPONENT NO. 01<<<<<<<<<<<<<<<<<<<<<<<<<<<<<<<<<<<<<<<<<<<<<<<<<<<<<<<


                                            -------------------------------------------
                                                      TRANSPORT STEP NO.  152
                                            -------------------------------------------

 TOTAL ELAPSED TIME SINCE BEGINNING OF SIMULATION =   68760.00    D   
 .....................................................................

                     CUMULATIVE MASS BUDGETS AT END OF TRANSPORT STEP  152, TIME STEP    1, STRESS PERIOD    3
                     -----------------------------------------------------------------------------------------

                                                             IN                           OUT
                                                      ----------------             ----------------
                               CONSTANT CONCENTRATION:    0.000000                    0.000000    
                                        CONSTANT HEAD:    858.2828                   -476.6523    
                                               STREAM:    0.000000                   -381.6347    
                               MASS STOR (FLOW MODEL):   0.5161509E-02              -0.6986623E-07
                                MASS STORAGE (SOLUTE):    0.000000                    0.000000    
                            ---------------------------------------------------------------------------
                                              [TOTAL]:    858.2880     KG            -858.2870     KG  

                                                          NET (IN - OUT):   0.9765625E-03
                                                   DISCREPANCY (PERCENT):   0.1137803E-03
     2 CALLS TO GCG PACKAGE FOR TRANSPORT TIME STEP   153 IN FLOW TIME STEP     1 STRESS PERIOD     3
      2 TOTAL ITERATIONS
  MAXIMUM CONCENTRATION CHANGES FOR EACH ITERATION:
  MAX. CHANGE LAYER,ROW,COL MAX. CHANGE LAYER,ROW,COL MAX. CHANGE LAYER,ROW,COL MAX. CHANGE LAYER,ROW,COL MAX. CHANGE LAYER,ROW,COL
 ------------------------------------------------------------------------------------------------------------------------------------
    0.000     (  1,  1,  1)   0.000     (  1,  1,  1)


                     STREAM MASS BUDGETS AT END OF TRANSPORT STEP  153, TIME STEP    1, STRESS PERIOD    3 FOR COMPONENT   1
                     -------------------------------------------------------------------------------------------------------

                                         CUMULATIVE MASS [M]                                     MASS FOR THIS TIME STEP [M]
                                         -------------------                                    --------------
                      STREAM DEPLETION =   1913.477                          STREAM DEPLETION =  0.8800235    
                      INFLOW TO STREAM =   4227.967                          INFLOW TO STREAM =   8.325000    
                          GW TO STREAM =   382.6338                              GW TO STREAM =  0.9990391    
                         PRECIPITATION =   0.000000                             PRECIPITATION =   0.000000    
                                RUNOFF =   0.000000                                    RUNOFF =   0.000000    
                CONSTANT CONCENTRATION =   0.000000                    CONSTANT CONCENTRATION =   0.000000    
                             MASS GAIN =   0.000000                                 MASS GAIN =   0.000000    
                                         -------------------                                    --------------
                              TOTAL IN =   6524.078                                  TOTAL IN =   10.20406    

                   STREAM ACCUMULATION =   1924.826                       STREAM ACCUMULATION =  0.1247473E-03
                        STREAM OUTFLOW =   4599.265                            STREAM OUTFLOW =   10.20394    
                          STREAM TO GW =   0.000000                              STREAM TO GW =   0.000000    
                CONSTANT CONCENTRATION =   0.000000                    CONSTANT CONCENTRATION =   0.000000    
                           EVAPORATION =   0.000000                               EVAPORATION =   0.000000    
                             MASS LOSS =   0.000000                                 MASS LOSS =   0.000000    
                                         -------------------                                    --------------
                             TOTAL OUT =   6524.091                                 TOTAL OUT =   10.20406    

                        NET (IN - OUT) = -0.1269531E-01                        NET (IN - OUT) = -0.1907349E-05
                 DISCREPANCY (PERCENT) = -0.1945915E-03                 DISCREPANCY (PERCENT) = -0.1869205E-04
                                              FLOW ERR (QIN-QOUT-DV) = -0.9536743E-06 [L3/T]




 >>>>>>>>>>>>>>>>>>>>>>>>>>>>>>>>>>>>>>>>>>>>>>>>>>>>>>>FOR COMPONENT NO. 01<<<<<<<<<<<<<<<<<<<<<<<<<<<<<<<<<<<<<<<<<<<<<<<<<<<<<<<


                                            -------------------------------------------
                                                      TRANSPORT STEP NO.  153
                                            -------------------------------------------

 TOTAL ELAPSED TIME SINCE BEGINNING OF SIMULATION =   68940.00    D   
 .....................................................................

                     CUMULATIVE MASS BUDGETS AT END OF TRANSPORT STEP  153, TIME STEP    1, STRESS PERIOD    3
                     -----------------------------------------------------------------------------------------

                                                             IN                           OUT
                                                      ----------------             ----------------
                               CONSTANT CONCENTRATION:    0.000000                    0.000000    
                                        CONSTANT HEAD:    860.5296                   -477.9001    
                                               STREAM:    0.000000                   -382.6338    
                               MASS STOR (FLOW MODEL):   0.5161509E-02              -0.6986623E-07
                                MASS STORAGE (SOLUTE):    0.000000                    0.000000    
                            ---------------------------------------------------------------------------
                                              [TOTAL]:    860.5348     KG            -860.5338     KG  

                                                          NET (IN - OUT):   0.9765625E-03
                                                   DISCREPANCY (PERCENT):   0.1134833E-03
     2 CALLS TO GCG PACKAGE FOR TRANSPORT TIME STEP   154 IN FLOW TIME STEP     1 STRESS PERIOD     3
      2 TOTAL ITERATIONS
  MAXIMUM CONCENTRATION CHANGES FOR EACH ITERATION:
  MAX. CHANGE LAYER,ROW,COL MAX. CHANGE LAYER,ROW,COL MAX. CHANGE LAYER,ROW,COL MAX. CHANGE LAYER,ROW,COL MAX. CHANGE LAYER,ROW,COL
 ------------------------------------------------------------------------------------------------------------------------------------
    0.000     (  1,  1,  1)   0.000     (  1,  1,  1)


                     STREAM MASS BUDGETS AT END OF TRANSPORT STEP  154, TIME STEP    1, STRESS PERIOD    3 FOR COMPONENT   1
                     -------------------------------------------------------------------------------------------------------

                                         CUMULATIVE MASS [M]                                     MASS FOR THIS TIME STEP [M]
                                         -------------------                                    --------------
                      STREAM DEPLETION =   1914.297                          STREAM DEPLETION =  0.8201871    
                      INFLOW TO STREAM =   4236.292                          INFLOW TO STREAM =   8.325000    
                          GW TO STREAM =   383.6328                              GW TO STREAM =  0.9990391    
                         PRECIPITATION =   0.000000                             PRECIPITATION =   0.000000    
                                RUNOFF =   0.000000                                    RUNOFF =   0.000000    
                CONSTANT CONCENTRATION =   0.000000                    CONSTANT CONCENTRATION =   0.000000    
                             MASS GAIN =   0.000000                                 MASS GAIN =   0.000000    
                                         -------------------                                    --------------
                              TOTAL IN =   6534.223                                  TOTAL IN =   10.14423    

                   STREAM ACCUMULATION =   1924.826                       STREAM ACCUMULATION =  0.1195040E-03
                        STREAM OUTFLOW =   4609.409                            STREAM OUTFLOW =   10.14411    
                          STREAM TO GW =   0.000000                              STREAM TO GW =   0.000000    
                CONSTANT CONCENTRATION =   0.000000                    CONSTANT CONCENTRATION =   0.000000    
                           EVAPORATION =   0.000000                               EVAPORATION =   0.000000    
                             MASS LOSS =   0.000000                                 MASS LOSS =   0.000000    
                                         -------------------                                    --------------
                             TOTAL OUT =   6534.235                                 TOTAL OUT =   10.14423    

                        NET (IN - OUT) = -0.1220703E-01                        NET (IN - OUT) = -0.1907349E-05
                 DISCREPANCY (PERCENT) = -0.1868167E-03                 DISCREPANCY (PERCENT) = -0.1880231E-04
                                              FLOW ERR (QIN-QOUT-DV) = -0.9536743E-06 [L3/T]




 >>>>>>>>>>>>>>>>>>>>>>>>>>>>>>>>>>>>>>>>>>>>>>>>>>>>>>>FOR COMPONENT NO. 01<<<<<<<<<<<<<<<<<<<<<<<<<<<<<<<<<<<<<<<<<<<<<<<<<<<<<<<


                                            -------------------------------------------
                                                      TRANSPORT STEP NO.  154
                                            -------------------------------------------

 TOTAL ELAPSED TIME SINCE BEGINNING OF SIMULATION =   69120.00    D   
 .....................................................................

                     CUMULATIVE MASS BUDGETS AT END OF TRANSPORT STEP  154, TIME STEP    1, STRESS PERIOD    3
                     -----------------------------------------------------------------------------------------

                                                             IN                           OUT
                                                      ----------------             ----------------
                               CONSTANT CONCENTRATION:    0.000000                    0.000000    
                                        CONSTANT HEAD:    862.7764                   -479.1478    
                                               STREAM:    0.000000                   -383.6328    
                               MASS STOR (FLOW MODEL):   0.5161509E-02              -0.6986623E-07
                                MASS STORAGE (SOLUTE):    0.000000                    0.000000    
                            ---------------------------------------------------------------------------
                                              [TOTAL]:    862.7816     KG            -862.7806     KG  

                                                          NET (IN - OUT):   0.9765625E-03
                                                   DISCREPANCY (PERCENT):   0.1131877E-03
     2 CALLS TO GCG PACKAGE FOR TRANSPORT TIME STEP   155 IN FLOW TIME STEP     1 STRESS PERIOD     3
      2 TOTAL ITERATIONS
  MAXIMUM CONCENTRATION CHANGES FOR EACH ITERATION:
  MAX. CHANGE LAYER,ROW,COL MAX. CHANGE LAYER,ROW,COL MAX. CHANGE LAYER,ROW,COL MAX. CHANGE LAYER,ROW,COL MAX. CHANGE LAYER,ROW,COL
 ------------------------------------------------------------------------------------------------------------------------------------
    0.000     (  1,  1,  1)   0.000     (  1,  1,  1)


                     STREAM MASS BUDGETS AT END OF TRANSPORT STEP  155, TIME STEP    1, STRESS PERIOD    3 FOR COMPONENT   1
                     -------------------------------------------------------------------------------------------------------

                                         CUMULATIVE MASS [M]                                     MASS FOR THIS TIME STEP [M]
                                         -------------------                                    --------------
                      STREAM DEPLETION =   1915.061                          STREAM DEPLETION =  0.7640705    
                      INFLOW TO STREAM =   4244.618                          INFLOW TO STREAM =   8.325000    
                          GW TO STREAM =   384.6319                              GW TO STREAM =  0.9990391    
                         PRECIPITATION =   0.000000                             PRECIPITATION =   0.000000    
                                RUNOFF =   0.000000                                    RUNOFF =   0.000000    
                CONSTANT CONCENTRATION =   0.000000                    CONSTANT CONCENTRATION =   0.000000    
                             MASS GAIN =   0.000000                                 MASS GAIN =   0.000000    
                                         -------------------                                    --------------
                              TOTAL IN =   6544.311                                  TOTAL IN =   10.08811    

                   STREAM ACCUMULATION =   1924.826                       STREAM ACCUMULATION =  0.1144779E-03
                        STREAM OUTFLOW =   4619.497                            STREAM OUTFLOW =   10.08800    
                          STREAM TO GW =   0.000000                              STREAM TO GW =   0.000000    
                CONSTANT CONCENTRATION =   0.000000                    CONSTANT CONCENTRATION =   0.000000    
                           EVAPORATION =   0.000000                               EVAPORATION =   0.000000    
                             MASS LOSS =   0.000000                                 MASS LOSS =   0.000000    
                                         -------------------                                    --------------
                             TOTAL OUT =   6544.323                                 TOTAL OUT =   10.08811    

                        NET (IN - OUT) = -0.1269531E-01                        NET (IN - OUT) = -0.1907349E-05
                 DISCREPANCY (PERCENT) = -0.1939899E-03                 DISCREPANCY (PERCENT) = -0.1890690E-04
                                              FLOW ERR (QIN-QOUT-DV) = -0.9536743E-06 [L3/T]




 >>>>>>>>>>>>>>>>>>>>>>>>>>>>>>>>>>>>>>>>>>>>>>>>>>>>>>>FOR COMPONENT NO. 01<<<<<<<<<<<<<<<<<<<<<<<<<<<<<<<<<<<<<<<<<<<<<<<<<<<<<<<


                                            -------------------------------------------
                                                      TRANSPORT STEP NO.  155
                                            -------------------------------------------

 TOTAL ELAPSED TIME SINCE BEGINNING OF SIMULATION =   69300.00    D   
 .....................................................................

                     CUMULATIVE MASS BUDGETS AT END OF TRANSPORT STEP  155, TIME STEP    1, STRESS PERIOD    3
                     -----------------------------------------------------------------------------------------

                                                             IN                           OUT
                                                      ----------------             ----------------
                               CONSTANT CONCENTRATION:    0.000000                    0.000000    
                                        CONSTANT HEAD:    865.0233                   -480.3956    
                                               STREAM:    0.000000                   -384.6319    
                               MASS STOR (FLOW MODEL):   0.5161509E-02              -0.6986623E-07
                                MASS STORAGE (SOLUTE):    0.000000                    0.000000    
                            ---------------------------------------------------------------------------
                                              [TOTAL]:    865.0284     KG            -865.0275     KG  

                                                          NET (IN - OUT):   0.9765625E-03
                                                   DISCREPANCY (PERCENT):   0.1128938E-03
     2 CALLS TO GCG PACKAGE FOR TRANSPORT TIME STEP   156 IN FLOW TIME STEP     1 STRESS PERIOD     3
      2 TOTAL ITERATIONS
  MAXIMUM CONCENTRATION CHANGES FOR EACH ITERATION:
  MAX. CHANGE LAYER,ROW,COL MAX. CHANGE LAYER,ROW,COL MAX. CHANGE LAYER,ROW,COL MAX. CHANGE LAYER,ROW,COL MAX. CHANGE LAYER,ROW,COL
 ------------------------------------------------------------------------------------------------------------------------------------
    0.000     (  1,  1,  1)   0.000     (  1,  1,  1)


                     STREAM MASS BUDGETS AT END OF TRANSPORT STEP  156, TIME STEP    1, STRESS PERIOD    3 FOR COMPONENT   1
                     -------------------------------------------------------------------------------------------------------

                                         CUMULATIVE MASS [M]                                     MASS FOR THIS TIME STEP [M]
                                         -------------------                                    --------------
                      STREAM DEPLETION =   1915.773                          STREAM DEPLETION =  0.7114766    
                      INFLOW TO STREAM =   4252.943                          INFLOW TO STREAM =   8.325000    
                          GW TO STREAM =   385.6309                              GW TO STREAM =  0.9990391    
                         PRECIPITATION =   0.000000                             PRECIPITATION =   0.000000    
                                RUNOFF =   0.000000                                    RUNOFF =   0.000000    
                CONSTANT CONCENTRATION =   0.000000                    CONSTANT CONCENTRATION =   0.000000    
                             MASS GAIN =   0.000000                                 MASS GAIN =   0.000000    
                                         -------------------                                    --------------
                              TOTAL IN =   6554.347                                  TOTAL IN =   10.03551    

                   STREAM ACCUMULATION =   1924.827                       STREAM ACCUMULATION =  0.1096601E-03
                        STREAM OUTFLOW =   4629.532                            STREAM OUTFLOW =   10.03541    
                          STREAM TO GW =   0.000000                              STREAM TO GW =   0.000000    
                CONSTANT CONCENTRATION =   0.000000                    CONSTANT CONCENTRATION =   0.000000    
                           EVAPORATION =   0.000000                               EVAPORATION =   0.000000    
                             MASS LOSS =   0.000000                                 MASS LOSS =   0.000000    
                                         -------------------                                    --------------
                             TOTAL OUT =   6554.359                                 TOTAL OUT =   10.03552    

                        NET (IN - OUT) = -0.1220703E-01                        NET (IN - OUT) = -0.2861023E-05
                 DISCREPANCY (PERCENT) = -0.1862431E-03                 DISCREPANCY (PERCENT) = -0.2850898E-04
                                              FLOW ERR (QIN-QOUT-DV) = -0.9536743E-06 [L3/T]




 >>>>>>>>>>>>>>>>>>>>>>>>>>>>>>>>>>>>>>>>>>>>>>>>>>>>>>>FOR COMPONENT NO. 01<<<<<<<<<<<<<<<<<<<<<<<<<<<<<<<<<<<<<<<<<<<<<<<<<<<<<<<


                                            -------------------------------------------
                                                      TRANSPORT STEP NO.  156
                                            -------------------------------------------

 TOTAL ELAPSED TIME SINCE BEGINNING OF SIMULATION =   69480.00    D   
 .....................................................................

                     CUMULATIVE MASS BUDGETS AT END OF TRANSPORT STEP  156, TIME STEP    1, STRESS PERIOD    3
                     -----------------------------------------------------------------------------------------

                                                             IN                           OUT
                                                      ----------------             ----------------
                               CONSTANT CONCENTRATION:    0.000000                    0.000000    
                                        CONSTANT HEAD:    867.2701                   -481.6434    
                                               STREAM:    0.000000                   -385.6309    
                               MASS STOR (FLOW MODEL):   0.5161509E-02              -0.6986623E-07
                                MASS STORAGE (SOLUTE):    0.000000                    0.000000    
                            ---------------------------------------------------------------------------
                                              [TOTAL]:    867.2753     KG            -867.2743     KG  

                                                          NET (IN - OUT):   0.9765625E-03
                                                   DISCREPANCY (PERCENT):   0.1126013E-03
     2 CALLS TO GCG PACKAGE FOR TRANSPORT TIME STEP   157 IN FLOW TIME STEP     1 STRESS PERIOD     3
      2 TOTAL ITERATIONS
  MAXIMUM CONCENTRATION CHANGES FOR EACH ITERATION:
  MAX. CHANGE LAYER,ROW,COL MAX. CHANGE LAYER,ROW,COL MAX. CHANGE LAYER,ROW,COL MAX. CHANGE LAYER,ROW,COL MAX. CHANGE LAYER,ROW,COL
 ------------------------------------------------------------------------------------------------------------------------------------
    0.000     (  1,  1,  1)   0.000     (  1,  1,  1)


                     STREAM MASS BUDGETS AT END OF TRANSPORT STEP  157, TIME STEP    1, STRESS PERIOD    3 FOR COMPONENT   1
                     -------------------------------------------------------------------------------------------------------

                                         CUMULATIVE MASS [M]                                     MASS FOR THIS TIME STEP [M]
                                         -------------------                                    --------------
                      STREAM DEPLETION =   1916.435                          STREAM DEPLETION =  0.6622164    
                      INFLOW TO STREAM =   4261.268                          INFLOW TO STREAM =   8.325000    
                          GW TO STREAM =   386.6300                              GW TO STREAM =  0.9990391    
                         PRECIPITATION =   0.000000                             PRECIPITATION =   0.000000    
                                RUNOFF =   0.000000                                    RUNOFF =   0.000000    
                CONSTANT CONCENTRATION =   0.000000                    CONSTANT CONCENTRATION =   0.000000    
                             MASS GAIN =   0.000000                                 MASS GAIN =   0.000000    
                                         -------------------                                    --------------
                              TOTAL IN =   6564.333                                  TOTAL IN =   9.986255    

                   STREAM ACCUMULATION =   1924.827                       STREAM ACCUMULATION =  0.1050422E-03
                        STREAM OUTFLOW =   4639.519                            STREAM OUTFLOW =   9.986153    
                          STREAM TO GW =   0.000000                              STREAM TO GW =   0.000000    
                CONSTANT CONCENTRATION =   0.000000                    CONSTANT CONCENTRATION =   0.000000    
                           EVAPORATION =   0.000000                               EVAPORATION =   0.000000    
                             MASS LOSS =   0.000000                                 MASS LOSS =   0.000000    
                                         -------------------                                    --------------
                             TOTAL OUT =   6564.345                                 TOTAL OUT =   9.986258    

                        NET (IN - OUT) = -0.1220703E-01                        NET (IN - OUT) = -0.2861023E-05
                 DISCREPANCY (PERCENT) = -0.1859598E-03                 DISCREPANCY (PERCENT) = -0.2864961E-04
                                              FLOW ERR (QIN-QOUT-DV) = -0.9536743E-06 [L3/T]




 >>>>>>>>>>>>>>>>>>>>>>>>>>>>>>>>>>>>>>>>>>>>>>>>>>>>>>>FOR COMPONENT NO. 01<<<<<<<<<<<<<<<<<<<<<<<<<<<<<<<<<<<<<<<<<<<<<<<<<<<<<<<


                                            -------------------------------------------
                                                      TRANSPORT STEP NO.  157
                                            -------------------------------------------

 TOTAL ELAPSED TIME SINCE BEGINNING OF SIMULATION =   69660.00    D   
 .....................................................................

                     CUMULATIVE MASS BUDGETS AT END OF TRANSPORT STEP  157, TIME STEP    1, STRESS PERIOD    3
                     -----------------------------------------------------------------------------------------

                                                             IN                           OUT
                                                      ----------------             ----------------
                               CONSTANT CONCENTRATION:    0.000000                    0.000000    
                                        CONSTANT HEAD:    869.5169                   -482.8911    
                                               STREAM:    0.000000                   -386.6300    
                               MASS STOR (FLOW MODEL):   0.5161509E-02              -0.6986623E-07
                                MASS STORAGE (SOLUTE):    0.000000                    0.000000    
                            ---------------------------------------------------------------------------
                                              [TOTAL]:    869.5221     KG            -869.5211     KG  

                                                          NET (IN - OUT):   0.9765625E-03
                                                   DISCREPANCY (PERCENT):   0.1123103E-03
     2 CALLS TO GCG PACKAGE FOR TRANSPORT TIME STEP   158 IN FLOW TIME STEP     1 STRESS PERIOD     3
      2 TOTAL ITERATIONS
  MAXIMUM CONCENTRATION CHANGES FOR EACH ITERATION:
  MAX. CHANGE LAYER,ROW,COL MAX. CHANGE LAYER,ROW,COL MAX. CHANGE LAYER,ROW,COL MAX. CHANGE LAYER,ROW,COL MAX. CHANGE LAYER,ROW,COL
 ------------------------------------------------------------------------------------------------------------------------------------
    0.000     (  1,  1,  1)   0.000     (  1,  1,  1)


                     STREAM MASS BUDGETS AT END OF TRANSPORT STEP  158, TIME STEP    1, STRESS PERIOD    3 FOR COMPONENT   1
                     -------------------------------------------------------------------------------------------------------

                                         CUMULATIVE MASS [M]                                     MASS FOR THIS TIME STEP [M]
                                         -------------------                                    --------------
                      STREAM DEPLETION =   1917.051                          STREAM DEPLETION =  0.6161074    
                      INFLOW TO STREAM =   4269.593                          INFLOW TO STREAM =   8.325000    
                          GW TO STREAM =   387.6290                              GW TO STREAM =  0.9990391    
                         PRECIPITATION =   0.000000                             PRECIPITATION =   0.000000    
                                RUNOFF =   0.000000                                    RUNOFF =   0.000000    
                CONSTANT CONCENTRATION =   0.000000                    CONSTANT CONCENTRATION =   0.000000    
                             MASS GAIN =   0.000000                                 MASS GAIN =   0.000000    
                                         -------------------                                    --------------
                              TOTAL IN =   6574.273                                  TOTAL IN =   9.940145    

                   STREAM ACCUMULATION =   1924.827                       STREAM ACCUMULATION =  0.1006161E-03
                        STREAM OUTFLOW =   4649.458                            STREAM OUTFLOW =   9.940047    
                          STREAM TO GW =   0.000000                              STREAM TO GW =   0.000000    
                CONSTANT CONCENTRATION =   0.000000                    CONSTANT CONCENTRATION =   0.000000    
                           EVAPORATION =   0.000000                               EVAPORATION =   0.000000    
                             MASS LOSS =   0.000000                                 MASS LOSS =   0.000000    
                                         -------------------                                    --------------
                             TOTAL OUT =   6574.285                                 TOTAL OUT =   9.940148    

                        NET (IN - OUT) = -0.1171875E-01                        NET (IN - OUT) = -0.2861023E-05
                 DISCREPANCY (PERCENT) = -0.1782515E-03                 DISCREPANCY (PERCENT) = -0.2878250E-04
                                              FLOW ERR (QIN-QOUT-DV) = -0.9536743E-06 [L3/T]




 >>>>>>>>>>>>>>>>>>>>>>>>>>>>>>>>>>>>>>>>>>>>>>>>>>>>>>>FOR COMPONENT NO. 01<<<<<<<<<<<<<<<<<<<<<<<<<<<<<<<<<<<<<<<<<<<<<<<<<<<<<<<


                                            -------------------------------------------
                                                      TRANSPORT STEP NO.  158
                                            -------------------------------------------

 TOTAL ELAPSED TIME SINCE BEGINNING OF SIMULATION =   69840.00    D   
 .....................................................................

                     CUMULATIVE MASS BUDGETS AT END OF TRANSPORT STEP  158, TIME STEP    1, STRESS PERIOD    3
                     -----------------------------------------------------------------------------------------

                                                             IN                           OUT
                                                      ----------------             ----------------
                               CONSTANT CONCENTRATION:    0.000000                    0.000000    
                                        CONSTANT HEAD:    871.7637                   -484.1389    
                                               STREAM:    0.000000                   -387.6290    
                               MASS STOR (FLOW MODEL):   0.5161509E-02              -0.6986623E-07
                                MASS STORAGE (SOLUTE):    0.000000                    0.000000    
                            ---------------------------------------------------------------------------
                                              [TOTAL]:    871.7689     KG            -871.7679     KG  

                                                          NET (IN - OUT):   0.9765625E-03
                                                   DISCREPANCY (PERCENT):   0.1120209E-03
     2 CALLS TO GCG PACKAGE FOR TRANSPORT TIME STEP   159 IN FLOW TIME STEP     1 STRESS PERIOD     3
      2 TOTAL ITERATIONS
  MAXIMUM CONCENTRATION CHANGES FOR EACH ITERATION:
  MAX. CHANGE LAYER,ROW,COL MAX. CHANGE LAYER,ROW,COL MAX. CHANGE LAYER,ROW,COL MAX. CHANGE LAYER,ROW,COL MAX. CHANGE LAYER,ROW,COL
 ------------------------------------------------------------------------------------------------------------------------------------
    0.000     (  1,  1,  1)   0.000     (  1,  1,  1)


                     STREAM MASS BUDGETS AT END OF TRANSPORT STEP  159, TIME STEP    1, STRESS PERIOD    3 FOR COMPONENT   1
                     -------------------------------------------------------------------------------------------------------

                                         CUMULATIVE MASS [M]                                     MASS FOR THIS TIME STEP [M]
                                         -------------------                                    --------------
                      STREAM DEPLETION =   1917.624                          STREAM DEPLETION =  0.5729743    
                      INFLOW TO STREAM =   4277.918                          INFLOW TO STREAM =   8.325000    
                          GW TO STREAM =   388.6281                              GW TO STREAM =  0.9990391    
                         PRECIPITATION =   0.000000                             PRECIPITATION =   0.000000    
                                RUNOFF =   0.000000                                    RUNOFF =   0.000000    
                CONSTANT CONCENTRATION =   0.000000                    CONSTANT CONCENTRATION =   0.000000    
                             MASS GAIN =   0.000000                                 MASS GAIN =   0.000000    
                                         -------------------                                    --------------
                              TOTAL IN =   6584.171                                  TOTAL IN =   9.897013    

                   STREAM ACCUMULATION =   1924.827                       STREAM ACCUMULATION =  0.9637389E-04
                        STREAM OUTFLOW =   4659.355                            STREAM OUTFLOW =   9.896918    
                          STREAM TO GW =   0.000000                              STREAM TO GW =   0.000000    
                CONSTANT CONCENTRATION =   0.000000                    CONSTANT CONCENTRATION =   0.000000    
                           EVAPORATION =   0.000000                               EVAPORATION =   0.000000    
                             MASS LOSS =   0.000000                                 MASS LOSS =   0.000000    
                                         -------------------                                    --------------
                             TOTAL OUT =   6584.183                                 TOTAL OUT =   9.897015    

                        NET (IN - OUT) = -0.1171875E-01                        NET (IN - OUT) = -0.1907349E-05
                 DISCREPANCY (PERCENT) = -0.1779835E-03                 DISCREPANCY (PERCENT) = -0.1927196E-04
                                              FLOW ERR (QIN-QOUT-DV) = -0.9536743E-06 [L3/T]




 >>>>>>>>>>>>>>>>>>>>>>>>>>>>>>>>>>>>>>>>>>>>>>>>>>>>>>>FOR COMPONENT NO. 01<<<<<<<<<<<<<<<<<<<<<<<<<<<<<<<<<<<<<<<<<<<<<<<<<<<<<<<


                                            -------------------------------------------
                                                      TRANSPORT STEP NO.  159
                                            -------------------------------------------

 TOTAL ELAPSED TIME SINCE BEGINNING OF SIMULATION =   70020.00    D   
 .....................................................................

                     CUMULATIVE MASS BUDGETS AT END OF TRANSPORT STEP  159, TIME STEP    1, STRESS PERIOD    3
                     -----------------------------------------------------------------------------------------

                                                             IN                           OUT
                                                      ----------------             ----------------
                               CONSTANT CONCENTRATION:    0.000000                    0.000000    
                                        CONSTANT HEAD:    874.0106                   -485.3867    
                                               STREAM:    0.000000                   -388.6281    
                               MASS STOR (FLOW MODEL):   0.5161509E-02              -0.6986623E-07
                                MASS STORAGE (SOLUTE):    0.000000                    0.000000    
                            ---------------------------------------------------------------------------
                                              [TOTAL]:    874.0157     KG            -874.0148     KG  

                                                          NET (IN - OUT):   0.9765625E-03
                                                   DISCREPANCY (PERCENT):   0.1117329E-03
     2 CALLS TO GCG PACKAGE FOR TRANSPORT TIME STEP   160 IN FLOW TIME STEP     1 STRESS PERIOD     3
      2 TOTAL ITERATIONS
  MAXIMUM CONCENTRATION CHANGES FOR EACH ITERATION:
  MAX. CHANGE LAYER,ROW,COL MAX. CHANGE LAYER,ROW,COL MAX. CHANGE LAYER,ROW,COL MAX. CHANGE LAYER,ROW,COL MAX. CHANGE LAYER,ROW,COL
 ------------------------------------------------------------------------------------------------------------------------------------
    0.000     (  1,  1,  1)   0.000     (  1,  1,  1)


                     STREAM MASS BUDGETS AT END OF TRANSPORT STEP  160, TIME STEP    1, STRESS PERIOD    3 FOR COMPONENT   1
                     -------------------------------------------------------------------------------------------------------

                                         CUMULATIVE MASS [M]                                     MASS FOR THIS TIME STEP [M]
                                         -------------------                                    --------------
                      STREAM DEPLETION =   1918.157                          STREAM DEPLETION =  0.5326481    
                      INFLOW TO STREAM =   4286.244                          INFLOW TO STREAM =   8.325000    
                          GW TO STREAM =   389.6271                              GW TO STREAM =  0.9990391    
                         PRECIPITATION =   0.000000                             PRECIPITATION =   0.000000    
                                RUNOFF =   0.000000                                    RUNOFF =   0.000000    
                CONSTANT CONCENTRATION =   0.000000                    CONSTANT CONCENTRATION =   0.000000    
                             MASS GAIN =   0.000000                                 MASS GAIN =   0.000000    
                                         -------------------                                    --------------
                              TOTAL IN =   6594.027                                  TOTAL IN =   9.856687    

                   STREAM ACCUMULATION =   1924.827                       STREAM ACCUMULATION =  0.9230880E-04
                        STREAM OUTFLOW =   4669.212                            STREAM OUTFLOW =   9.856597    
                          STREAM TO GW =   0.000000                              STREAM TO GW =   0.000000    
                CONSTANT CONCENTRATION =   0.000000                    CONSTANT CONCENTRATION =   0.000000    
                           EVAPORATION =   0.000000                               EVAPORATION =   0.000000    
                             MASS LOSS =   0.000000                                 MASS LOSS =   0.000000    
                                         -------------------                                    --------------
                             TOTAL OUT =   6594.039                                 TOTAL OUT =   9.856689    

                        NET (IN - OUT) = -0.1171875E-01                        NET (IN - OUT) = -0.2861023E-05
                 DISCREPANCY (PERCENT) = -0.1777175E-03                 DISCREPANCY (PERCENT) = -0.2902621E-04
                                              FLOW ERR (QIN-QOUT-DV) = -0.9536743E-06 [L3/T]




 >>>>>>>>>>>>>>>>>>>>>>>>>>>>>>>>>>>>>>>>>>>>>>>>>>>>>>>FOR COMPONENT NO. 01<<<<<<<<<<<<<<<<<<<<<<<<<<<<<<<<<<<<<<<<<<<<<<<<<<<<<<<


                                            -------------------------------------------
                                                      TRANSPORT STEP NO.  160
                                            -------------------------------------------

 TOTAL ELAPSED TIME SINCE BEGINNING OF SIMULATION =   70200.00    D   
 .....................................................................

                     CUMULATIVE MASS BUDGETS AT END OF TRANSPORT STEP  160, TIME STEP    1, STRESS PERIOD    3
                     -----------------------------------------------------------------------------------------

                                                             IN                           OUT
                                                      ----------------             ----------------
                               CONSTANT CONCENTRATION:    0.000000                    0.000000    
                                        CONSTANT HEAD:    876.2574                   -486.6345    
                                               STREAM:    0.000000                   -389.6271    
                               MASS STOR (FLOW MODEL):   0.5161509E-02              -0.6986623E-07
                                MASS STORAGE (SOLUTE):    0.000000                    0.000000    
                            ---------------------------------------------------------------------------
                                              [TOTAL]:    876.2626     KG            -876.2616     KG  

                                                          NET (IN - OUT):   0.9765625E-03
                                                   DISCREPANCY (PERCENT):   0.1114464E-03
     2 CALLS TO GCG PACKAGE FOR TRANSPORT TIME STEP   161 IN FLOW TIME STEP     1 STRESS PERIOD     3
      2 TOTAL ITERATIONS
  MAXIMUM CONCENTRATION CHANGES FOR EACH ITERATION:
  MAX. CHANGE LAYER,ROW,COL MAX. CHANGE LAYER,ROW,COL MAX. CHANGE LAYER,ROW,COL MAX. CHANGE LAYER,ROW,COL MAX. CHANGE LAYER,ROW,COL
 ------------------------------------------------------------------------------------------------------------------------------------
    0.000     (  1,  1,  1)   0.000     (  1,  1,  1)


                     STREAM MASS BUDGETS AT END OF TRANSPORT STEP  161, TIME STEP    1, STRESS PERIOD    3 FOR COMPONENT   1
                     -------------------------------------------------------------------------------------------------------

                                         CUMULATIVE MASS [M]                                     MASS FOR THIS TIME STEP [M]
                                         -------------------                                    --------------
                      STREAM DEPLETION =   1918.652                          STREAM DEPLETION =  0.4949683    
                      INFLOW TO STREAM =   4294.569                          INFLOW TO STREAM =   8.325000    
                          GW TO STREAM =   390.6262                              GW TO STREAM =  0.9990391    
                         PRECIPITATION =   0.000000                             PRECIPITATION =   0.000000    
                                RUNOFF =   0.000000                                    RUNOFF =   0.000000    
                CONSTANT CONCENTRATION =   0.000000                    CONSTANT CONCENTRATION =   0.000000    
                             MASS GAIN =   0.000000                                 MASS GAIN =   0.000000    
                                         -------------------                                    --------------
                              TOTAL IN =   6603.847                                  TOTAL IN =   9.819007    

                   STREAM ACCUMULATION =   1924.827                       STREAM ACCUMULATION =  0.8841320E-04
                        STREAM OUTFLOW =   4679.031                            STREAM OUTFLOW =   9.818921    
                          STREAM TO GW =   0.000000                              STREAM TO GW =   0.000000    
                CONSTANT CONCENTRATION =   0.000000                    CONSTANT CONCENTRATION =   0.000000    
                           EVAPORATION =   0.000000                               EVAPORATION =   0.000000    
                             MASS LOSS =   0.000000                                 MASS LOSS =   0.000000    
                                         -------------------                                    --------------
                             TOTAL OUT =   6603.858                                 TOTAL OUT =   9.819010    

                        NET (IN - OUT) = -0.1123047E-01                        NET (IN - OUT) = -0.2861023E-05
                 DISCREPANCY (PERCENT) = -0.1700594E-03                 DISCREPANCY (PERCENT) = -0.2913760E-04
                                              FLOW ERR (QIN-QOUT-DV) = -0.9536743E-06 [L3/T]




 >>>>>>>>>>>>>>>>>>>>>>>>>>>>>>>>>>>>>>>>>>>>>>>>>>>>>>>FOR COMPONENT NO. 01<<<<<<<<<<<<<<<<<<<<<<<<<<<<<<<<<<<<<<<<<<<<<<<<<<<<<<<


                                            -------------------------------------------
                                                      TRANSPORT STEP NO.  161
                                            -------------------------------------------

 TOTAL ELAPSED TIME SINCE BEGINNING OF SIMULATION =   70380.00    D   
 .....................................................................

                     CUMULATIVE MASS BUDGETS AT END OF TRANSPORT STEP  161, TIME STEP    1, STRESS PERIOD    3
                     -----------------------------------------------------------------------------------------

                                                             IN                           OUT
                                                      ----------------             ----------------
                               CONSTANT CONCENTRATION:    0.000000                    0.000000    
                                        CONSTANT HEAD:    878.5042                   -487.8822    
                                               STREAM:    0.000000                   -390.6262    
                               MASS STOR (FLOW MODEL):   0.5161509E-02              -0.6986623E-07
                                MASS STORAGE (SOLUTE):    0.000000                    0.000000    
                            ---------------------------------------------------------------------------
                                              [TOTAL]:    878.5094     KG            -878.5084     KG  

                                                          NET (IN - OUT):   0.9765625E-03
                                                   DISCREPANCY (PERCENT):   0.1111614E-03
     2 CALLS TO GCG PACKAGE FOR TRANSPORT TIME STEP   162 IN FLOW TIME STEP     1 STRESS PERIOD     3
      2 TOTAL ITERATIONS
  MAXIMUM CONCENTRATION CHANGES FOR EACH ITERATION:
  MAX. CHANGE LAYER,ROW,COL MAX. CHANGE LAYER,ROW,COL MAX. CHANGE LAYER,ROW,COL MAX. CHANGE LAYER,ROW,COL MAX. CHANGE LAYER,ROW,COL
 ------------------------------------------------------------------------------------------------------------------------------------
    0.000     (  1,  1,  1)   0.000     (  1,  1,  1)


                     STREAM MASS BUDGETS AT END OF TRANSPORT STEP  162, TIME STEP    1, STRESS PERIOD    3 FOR COMPONENT   1
                     -------------------------------------------------------------------------------------------------------

                                         CUMULATIVE MASS [M]                                     MASS FOR THIS TIME STEP [M]
                                         -------------------                                    --------------
                      STREAM DEPLETION =   1919.111                          STREAM DEPLETION =  0.4597804    
                      INFLOW TO STREAM =   4302.894                          INFLOW TO STREAM =   8.325000    
                          GW TO STREAM =   391.6252                              GW TO STREAM =  0.9990391    
                         PRECIPITATION =   0.000000                             PRECIPITATION =   0.000000    
                                RUNOFF =   0.000000                                    RUNOFF =   0.000000    
                CONSTANT CONCENTRATION =   0.000000                    CONSTANT CONCENTRATION =   0.000000    
                             MASS GAIN =   0.000000                                 MASS GAIN =   0.000000    
                                         -------------------                                    --------------
                              TOTAL IN =   6613.631                                  TOTAL IN =   9.783819    

                   STREAM ACCUMULATION =   1924.827                       STREAM ACCUMULATION =  0.8467981E-04
                        STREAM OUTFLOW =   4688.814                            STREAM OUTFLOW =   9.783736    
                          STREAM TO GW =   0.000000                              STREAM TO GW =   0.000000    
                CONSTANT CONCENTRATION =   0.000000                    CONSTANT CONCENTRATION =   0.000000    
                           EVAPORATION =   0.000000                               EVAPORATION =   0.000000    
                             MASS LOSS =   0.000000                                 MASS LOSS =   0.000000    
                                         -------------------                                    --------------
                             TOTAL OUT =   6613.642                                 TOTAL OUT =   9.783821    

                        NET (IN - OUT) = -0.1074219E-01                        NET (IN - OUT) = -0.1907349E-05
                 DISCREPANCY (PERCENT) = -0.1624248E-03                 DISCREPANCY (PERCENT) = -0.1949493E-04
                                              FLOW ERR (QIN-QOUT-DV) = -0.9536743E-06 [L3/T]




 >>>>>>>>>>>>>>>>>>>>>>>>>>>>>>>>>>>>>>>>>>>>>>>>>>>>>>>FOR COMPONENT NO. 01<<<<<<<<<<<<<<<<<<<<<<<<<<<<<<<<<<<<<<<<<<<<<<<<<<<<<<<


                                            -------------------------------------------
                                                      TRANSPORT STEP NO.  162
                                            -------------------------------------------

 TOTAL ELAPSED TIME SINCE BEGINNING OF SIMULATION =   70560.00    D   
 .....................................................................

                     CUMULATIVE MASS BUDGETS AT END OF TRANSPORT STEP  162, TIME STEP    1, STRESS PERIOD    3
                     -----------------------------------------------------------------------------------------

                                                             IN                           OUT
                                                      ----------------             ----------------
                               CONSTANT CONCENTRATION:    0.000000                    0.000000    
                                        CONSTANT HEAD:    880.7510                   -489.1300    
                                               STREAM:    0.000000                   -391.6252    
                               MASS STOR (FLOW MODEL):   0.5161509E-02              -0.6986623E-07
                                MASS STORAGE (SOLUTE):    0.000000                    0.000000    
                            ---------------------------------------------------------------------------
                                              [TOTAL]:    880.7562     KG            -880.7552     KG  

                                                          NET (IN - OUT):   0.9765625E-03
                                                   DISCREPANCY (PERCENT):   0.1108778E-03
     2 CALLS TO GCG PACKAGE FOR TRANSPORT TIME STEP   163 IN FLOW TIME STEP     1 STRESS PERIOD     3
      2 TOTAL ITERATIONS
  MAXIMUM CONCENTRATION CHANGES FOR EACH ITERATION:
  MAX. CHANGE LAYER,ROW,COL MAX. CHANGE LAYER,ROW,COL MAX. CHANGE LAYER,ROW,COL MAX. CHANGE LAYER,ROW,COL MAX. CHANGE LAYER,ROW,COL
 ------------------------------------------------------------------------------------------------------------------------------------
    0.000     (  1,  1,  1)   0.000     (  1,  1,  1)


                     STREAM MASS BUDGETS AT END OF TRANSPORT STEP  163, TIME STEP    1, STRESS PERIOD    3 FOR COMPONENT   1
                     -------------------------------------------------------------------------------------------------------

                                         CUMULATIVE MASS [M]                                     MASS FOR THIS TIME STEP [M]
                                         -------------------                                    --------------
                      STREAM DEPLETION =   1919.538                          STREAM DEPLETION =  0.4269373    
                      INFLOW TO STREAM =   4311.219                          INFLOW TO STREAM =   8.325000    
                          GW TO STREAM =   392.6243                              GW TO STREAM =  0.9990391    
                         PRECIPITATION =   0.000000                             PRECIPITATION =   0.000000    
                                RUNOFF =   0.000000                                    RUNOFF =   0.000000    
                CONSTANT CONCENTRATION =   0.000000                    CONSTANT CONCENTRATION =   0.000000    
                             MASS GAIN =   0.000000                                 MASS GAIN =   0.000000    
                                         -------------------                                    --------------
                              TOTAL IN =   6623.382                                  TOTAL IN =   9.750976    

                   STREAM ACCUMULATION =   1924.827                       STREAM ACCUMULATION =  0.8110195E-04
                        STREAM OUTFLOW =   4698.565                            STREAM OUTFLOW =   9.750897    
                          STREAM TO GW =   0.000000                              STREAM TO GW =   0.000000    
                CONSTANT CONCENTRATION =   0.000000                    CONSTANT CONCENTRATION =   0.000000    
                           EVAPORATION =   0.000000                               EVAPORATION =   0.000000    
                             MASS LOSS =   0.000000                                 MASS LOSS =   0.000000    
                                         -------------------                                    --------------
                             TOTAL OUT =   6623.393                                 TOTAL OUT =   9.750978    

                        NET (IN - OUT) = -0.1074219E-01                        NET (IN - OUT) = -0.2861023E-05
                 DISCREPANCY (PERCENT) = -0.1621857E-03                 DISCREPANCY (PERCENT) = -0.2934089E-04
                                              FLOW ERR (QIN-QOUT-DV) = -0.9536743E-06 [L3/T]




 >>>>>>>>>>>>>>>>>>>>>>>>>>>>>>>>>>>>>>>>>>>>>>>>>>>>>>>FOR COMPONENT NO. 01<<<<<<<<<<<<<<<<<<<<<<<<<<<<<<<<<<<<<<<<<<<<<<<<<<<<<<<


                                            -------------------------------------------
                                                      TRANSPORT STEP NO.  163
                                            -------------------------------------------

 TOTAL ELAPSED TIME SINCE BEGINNING OF SIMULATION =   70740.00    D   
 .....................................................................

                     CUMULATIVE MASS BUDGETS AT END OF TRANSPORT STEP  163, TIME STEP    1, STRESS PERIOD    3
                     -----------------------------------------------------------------------------------------

                                                             IN                           OUT
                                                      ----------------             ----------------
                               CONSTANT CONCENTRATION:    0.000000                    0.000000    
                                        CONSTANT HEAD:    882.9979                   -490.3778    
                                               STREAM:    0.000000                   -392.6243    
                               MASS STOR (FLOW MODEL):   0.5161509E-02              -0.6986623E-07
                                MASS STORAGE (SOLUTE):    0.000000                    0.000000    
                            ---------------------------------------------------------------------------
                                              [TOTAL]:    883.0031     KG            -883.0021     KG  

                                                          NET (IN - OUT):   0.9765625E-03
                                                   DISCREPANCY (PERCENT):   0.1105957E-03
     2 CALLS TO GCG PACKAGE FOR TRANSPORT TIME STEP   164 IN FLOW TIME STEP     1 STRESS PERIOD     3
      2 TOTAL ITERATIONS
  MAXIMUM CONCENTRATION CHANGES FOR EACH ITERATION:
  MAX. CHANGE LAYER,ROW,COL MAX. CHANGE LAYER,ROW,COL MAX. CHANGE LAYER,ROW,COL MAX. CHANGE LAYER,ROW,COL MAX. CHANGE LAYER,ROW,COL
 ------------------------------------------------------------------------------------------------------------------------------------
    0.000     (  1,  1,  1)   0.000     (  1,  1,  1)


                     STREAM MASS BUDGETS AT END OF TRANSPORT STEP  164, TIME STEP    1, STRESS PERIOD    3 FOR COMPONENT   1
                     -------------------------------------------------------------------------------------------------------

                                         CUMULATIVE MASS [M]                                     MASS FOR THIS TIME STEP [M]
                                         -------------------                                    --------------
                      STREAM DEPLETION =   1919.935                          STREAM DEPLETION =  0.3962989    
                      INFLOW TO STREAM =   4319.544                          INFLOW TO STREAM =   8.325000    
                          GW TO STREAM =   393.6234                              GW TO STREAM =  0.9990391    
                         PRECIPITATION =   0.000000                             PRECIPITATION =   0.000000    
                                RUNOFF =   0.000000                                    RUNOFF =   0.000000    
                CONSTANT CONCENTRATION =   0.000000                    CONSTANT CONCENTRATION =   0.000000    
                             MASS GAIN =   0.000000                                 MASS GAIN =   0.000000    
                                         -------------------                                    --------------
                              TOTAL IN =   6633.103                                  TOTAL IN =   9.720337    

                   STREAM ACCUMULATION =   1924.828                       STREAM ACCUMULATION =  0.7778580E-04
                        STREAM OUTFLOW =   4708.286                            STREAM OUTFLOW =   9.720262    
                          STREAM TO GW =   0.000000                              STREAM TO GW =   0.000000    
                CONSTANT CONCENTRATION =   0.000000                    CONSTANT CONCENTRATION =   0.000000    
                           EVAPORATION =   0.000000                               EVAPORATION =   0.000000    
                             MASS LOSS =   0.000000                                 MASS LOSS =   0.000000    
                                         -------------------                                    --------------
                             TOTAL OUT =   6633.113                                 TOTAL OUT =   9.720340    

                        NET (IN - OUT) = -0.1074219E-01                        NET (IN - OUT) = -0.2861023E-05
                 DISCREPANCY (PERCENT) = -0.1619480E-03                 DISCREPANCY (PERCENT) = -0.2943337E-04
                                              FLOW ERR (QIN-QOUT-DV) = -0.9536743E-06 [L3/T]




 >>>>>>>>>>>>>>>>>>>>>>>>>>>>>>>>>>>>>>>>>>>>>>>>>>>>>>>FOR COMPONENT NO. 01<<<<<<<<<<<<<<<<<<<<<<<<<<<<<<<<<<<<<<<<<<<<<<<<<<<<<<<


                                            -------------------------------------------
                                                      TRANSPORT STEP NO.  164
                                            -------------------------------------------

 TOTAL ELAPSED TIME SINCE BEGINNING OF SIMULATION =   70920.00    D   
 .....................................................................

                     CUMULATIVE MASS BUDGETS AT END OF TRANSPORT STEP  164, TIME STEP    1, STRESS PERIOD    3
                     -----------------------------------------------------------------------------------------

                                                             IN                           OUT
                                                      ----------------             ----------------
                               CONSTANT CONCENTRATION:    0.000000                    0.000000    
                                        CONSTANT HEAD:    885.2447                   -491.6255    
                                               STREAM:    0.000000                   -393.6234    
                               MASS STOR (FLOW MODEL):   0.5161509E-02              -0.6986623E-07
                                MASS STORAGE (SOLUTE):    0.000000                    0.000000    
                            ---------------------------------------------------------------------------
                                              [TOTAL]:    885.2499     KG            -885.2489     KG  

                                                          NET (IN - OUT):   0.9765625E-03
                                                   DISCREPANCY (PERCENT):   0.1103150E-03
     2 CALLS TO GCG PACKAGE FOR TRANSPORT TIME STEP   165 IN FLOW TIME STEP     1 STRESS PERIOD     3
      2 TOTAL ITERATIONS
  MAXIMUM CONCENTRATION CHANGES FOR EACH ITERATION:
  MAX. CHANGE LAYER,ROW,COL MAX. CHANGE LAYER,ROW,COL MAX. CHANGE LAYER,ROW,COL MAX. CHANGE LAYER,ROW,COL MAX. CHANGE LAYER,ROW,COL
 ------------------------------------------------------------------------------------------------------------------------------------
    0.000     (  1,  1,  1)   0.000     (  1,  1,  1)


                     STREAM MASS BUDGETS AT END OF TRANSPORT STEP  165, TIME STEP    1, STRESS PERIOD    3 FOR COMPONENT   1
                     -------------------------------------------------------------------------------------------------------

                                         CUMULATIVE MASS [M]                                     MASS FOR THIS TIME STEP [M]
                                         -------------------                                    --------------
                      STREAM DEPLETION =   1920.302                          STREAM DEPLETION =  0.3677313    
                      INFLOW TO STREAM =   4327.870                          INFLOW TO STREAM =   8.325000    
                          GW TO STREAM =   394.6224                              GW TO STREAM =  0.9990391    
                         PRECIPITATION =   0.000000                             PRECIPITATION =   0.000000    
                                RUNOFF =   0.000000                                    RUNOFF =   0.000000    
                CONSTANT CONCENTRATION =   0.000000                    CONSTANT CONCENTRATION =   0.000000    
                             MASS GAIN =   0.000000                                 MASS GAIN =   0.000000    
                                         -------------------                                    --------------
                              TOTAL IN =   6642.794                                  TOTAL IN =   9.691770    

                   STREAM ACCUMULATION =   1924.828                       STREAM ACCUMULATION =  0.7462584E-04
                        STREAM OUTFLOW =   4717.978                            STREAM OUTFLOW =   9.691698    
                          STREAM TO GW =   0.000000                              STREAM TO GW =   0.000000    
                CONSTANT CONCENTRATION =   0.000000                    CONSTANT CONCENTRATION =   0.000000    
                           EVAPORATION =   0.000000                               EVAPORATION =   0.000000    
                             MASS LOSS =   0.000000                                 MASS LOSS =   0.000000    
                                         -------------------                                    --------------
                             TOTAL OUT =   6642.805                                 TOTAL OUT =   9.691772    

                        NET (IN - OUT) = -0.1123047E-01                        NET (IN - OUT) = -0.2861023E-05
                 DISCREPANCY (PERCENT) = -0.1690623E-03                 DISCREPANCY (PERCENT) = -0.2952013E-04
                                              FLOW ERR (QIN-QOUT-DV) = -0.9536743E-06 [L3/T]




 >>>>>>>>>>>>>>>>>>>>>>>>>>>>>>>>>>>>>>>>>>>>>>>>>>>>>>>FOR COMPONENT NO. 01<<<<<<<<<<<<<<<<<<<<<<<<<<<<<<<<<<<<<<<<<<<<<<<<<<<<<<<


                                            -------------------------------------------
                                                      TRANSPORT STEP NO.  165
                                            -------------------------------------------

 TOTAL ELAPSED TIME SINCE BEGINNING OF SIMULATION =   71100.00    D   
 .....................................................................

                     CUMULATIVE MASS BUDGETS AT END OF TRANSPORT STEP  165, TIME STEP    1, STRESS PERIOD    3
                     -----------------------------------------------------------------------------------------

                                                             IN                           OUT
                                                      ----------------             ----------------
                               CONSTANT CONCENTRATION:    0.000000                    0.000000    
                                        CONSTANT HEAD:    887.4915                   -492.8733    
                                               STREAM:    0.000000                   -394.6224    
                               MASS STOR (FLOW MODEL):   0.5161509E-02              -0.6986623E-07
                                MASS STORAGE (SOLUTE):    0.000000                    0.000000    
                            ---------------------------------------------------------------------------
                                              [TOTAL]:    887.4967     KG            -887.4957     KG  

                                                          NET (IN - OUT):   0.9765625E-03
                                                   DISCREPANCY (PERCENT):   0.1100357E-03
     2 CALLS TO GCG PACKAGE FOR TRANSPORT TIME STEP   166 IN FLOW TIME STEP     1 STRESS PERIOD     3
      2 TOTAL ITERATIONS
  MAXIMUM CONCENTRATION CHANGES FOR EACH ITERATION:
  MAX. CHANGE LAYER,ROW,COL MAX. CHANGE LAYER,ROW,COL MAX. CHANGE LAYER,ROW,COL MAX. CHANGE LAYER,ROW,COL MAX. CHANGE LAYER,ROW,COL
 ------------------------------------------------------------------------------------------------------------------------------------
    0.000     (  1,  1,  1)   0.000     (  1,  1,  1)


                     STREAM MASS BUDGETS AT END OF TRANSPORT STEP  166, TIME STEP    1, STRESS PERIOD    3 FOR COMPONENT   1
                     -------------------------------------------------------------------------------------------------------

                                         CUMULATIVE MASS [M]                                     MASS FOR THIS TIME STEP [M]
                                         -------------------                                    --------------
                      STREAM DEPLETION =   1920.643                          STREAM DEPLETION =  0.3411079    
                      INFLOW TO STREAM =   4336.195                          INFLOW TO STREAM =   8.325000    
                          GW TO STREAM =   395.6215                              GW TO STREAM =  0.9990391    
                         PRECIPITATION =   0.000000                             PRECIPITATION =   0.000000    
                                RUNOFF =   0.000000                                    RUNOFF =   0.000000    
                CONSTANT CONCENTRATION =   0.000000                    CONSTANT CONCENTRATION =   0.000000    
                             MASS GAIN =   0.000000                                 MASS GAIN =   0.000000    
                                         -------------------                                    --------------
                              TOTAL IN =   6652.459                                  TOTAL IN =   9.665147    

                   STREAM ACCUMULATION =   1924.828                       STREAM ACCUMULATION =  0.7159314E-04
                        STREAM OUTFLOW =   4727.643                            STREAM OUTFLOW =   9.665077    
                          STREAM TO GW =   0.000000                              STREAM TO GW =   0.000000    
                CONSTANT CONCENTRATION =   0.000000                    CONSTANT CONCENTRATION =   0.000000    
                           EVAPORATION =   0.000000                               EVAPORATION =   0.000000    
                             MASS LOSS =   0.000000                                 MASS LOSS =   0.000000    
                                         -------------------                                    --------------
                             TOTAL OUT =   6652.470                                 TOTAL OUT =   9.665149    

                        NET (IN - OUT) = -0.1074219E-01                        NET (IN - OUT) = -0.1907349E-05
                 DISCREPANCY (PERCENT) = -0.1614768E-03                 DISCREPANCY (PERCENT) = -0.1973429E-04
                                              FLOW ERR (QIN-QOUT-DV) = -0.9536743E-06 [L3/T]




 >>>>>>>>>>>>>>>>>>>>>>>>>>>>>>>>>>>>>>>>>>>>>>>>>>>>>>>FOR COMPONENT NO. 01<<<<<<<<<<<<<<<<<<<<<<<<<<<<<<<<<<<<<<<<<<<<<<<<<<<<<<<


                                            -------------------------------------------
                                                      TRANSPORT STEP NO.  166
                                            -------------------------------------------

 TOTAL ELAPSED TIME SINCE BEGINNING OF SIMULATION =   71280.00    D   
 .....................................................................

                     CUMULATIVE MASS BUDGETS AT END OF TRANSPORT STEP  166, TIME STEP    1, STRESS PERIOD    3
                     -----------------------------------------------------------------------------------------

                                                             IN                           OUT
                                                      ----------------             ----------------
                               CONSTANT CONCENTRATION:    0.000000                    0.000000    
                                        CONSTANT HEAD:    889.7383                   -494.1211    
                                               STREAM:    0.000000                   -395.6215    
                               MASS STOR (FLOW MODEL):   0.5161509E-02              -0.6986623E-07
                                MASS STORAGE (SOLUTE):    0.000000                    0.000000    
                            ---------------------------------------------------------------------------
                                              [TOTAL]:    889.7435     KG            -889.7426     KG  

                                                          NET (IN - OUT):   0.9765625E-03
                                                   DISCREPANCY (PERCENT):   0.1097578E-03
     2 CALLS TO GCG PACKAGE FOR TRANSPORT TIME STEP   167 IN FLOW TIME STEP     1 STRESS PERIOD     3
      2 TOTAL ITERATIONS
  MAXIMUM CONCENTRATION CHANGES FOR EACH ITERATION:
  MAX. CHANGE LAYER,ROW,COL MAX. CHANGE LAYER,ROW,COL MAX. CHANGE LAYER,ROW,COL MAX. CHANGE LAYER,ROW,COL MAX. CHANGE LAYER,ROW,COL
 ------------------------------------------------------------------------------------------------------------------------------------
    0.000     (  1,  1,  1)   0.000     (  1,  1,  1)


                     STREAM MASS BUDGETS AT END OF TRANSPORT STEP  167, TIME STEP    1, STRESS PERIOD    3 FOR COMPONENT   1
                     -------------------------------------------------------------------------------------------------------

                                         CUMULATIVE MASS [M]                                     MASS FOR THIS TIME STEP [M]
                                         -------------------                                    --------------
                      STREAM DEPLETION =   1920.960                          STREAM DEPLETION =  0.3163080    
                      INFLOW TO STREAM =   4344.520                          INFLOW TO STREAM =   8.325000    
                          GW TO STREAM =   396.6205                              GW TO STREAM =  0.9990391    
                         PRECIPITATION =   0.000000                             PRECIPITATION =   0.000000    
                                RUNOFF =   0.000000                                    RUNOFF =   0.000000    
                CONSTANT CONCENTRATION =   0.000000                    CONSTANT CONCENTRATION =   0.000000    
                             MASS GAIN =   0.000000                                 MASS GAIN =   0.000000    
                                         -------------------                                    --------------
                              TOTAL IN =   6662.100                                  TOTAL IN =   9.640347    

                   STREAM ACCUMULATION =   1924.828                       STREAM ACCUMULATION =  0.6868260E-04
                        STREAM OUTFLOW =   4737.283                            STREAM OUTFLOW =   9.640281    
                          STREAM TO GW =   0.000000                              STREAM TO GW =   0.000000    
                CONSTANT CONCENTRATION =   0.000000                    CONSTANT CONCENTRATION =   0.000000    
                           EVAPORATION =   0.000000                               EVAPORATION =   0.000000    
                             MASS LOSS =   0.000000                                 MASS LOSS =   0.000000    
                                         -------------------                                    --------------
                             TOTAL OUT =   6662.110                                 TOTAL OUT =   9.640349    

                        NET (IN - OUT) = -0.1025391E-01                        NET (IN - OUT) = -0.2861023E-05
                 DISCREPANCY (PERCENT) = -0.1539139E-03                 DISCREPANCY (PERCENT) = -0.2967759E-04
                                              FLOW ERR (QIN-QOUT-DV) = -0.9536743E-06 [L3/T]




 >>>>>>>>>>>>>>>>>>>>>>>>>>>>>>>>>>>>>>>>>>>>>>>>>>>>>>>FOR COMPONENT NO. 01<<<<<<<<<<<<<<<<<<<<<<<<<<<<<<<<<<<<<<<<<<<<<<<<<<<<<<<


                                            -------------------------------------------
                                                      TRANSPORT STEP NO.  167
                                            -------------------------------------------

 TOTAL ELAPSED TIME SINCE BEGINNING OF SIMULATION =   71460.00    D   
 .....................................................................

                     CUMULATIVE MASS BUDGETS AT END OF TRANSPORT STEP  167, TIME STEP    1, STRESS PERIOD    3
                     -----------------------------------------------------------------------------------------

                                                             IN                           OUT
                                                      ----------------             ----------------
                               CONSTANT CONCENTRATION:    0.000000                    0.000000    
                                        CONSTANT HEAD:    891.9852                   -495.3689    
                                               STREAM:    0.000000                   -396.6205    
                               MASS STOR (FLOW MODEL):   0.5161509E-02              -0.6986623E-07
                                MASS STORAGE (SOLUTE):    0.000000                    0.000000    
                            ---------------------------------------------------------------------------
                                              [TOTAL]:    891.9904     KG            -891.9894     KG  

                                                          NET (IN - OUT):   0.9765625E-03
                                                   DISCREPANCY (PERCENT):   0.1094813E-03
     2 CALLS TO GCG PACKAGE FOR TRANSPORT TIME STEP   168 IN FLOW TIME STEP     1 STRESS PERIOD     3
      2 TOTAL ITERATIONS
  MAXIMUM CONCENTRATION CHANGES FOR EACH ITERATION:
  MAX. CHANGE LAYER,ROW,COL MAX. CHANGE LAYER,ROW,COL MAX. CHANGE LAYER,ROW,COL MAX. CHANGE LAYER,ROW,COL MAX. CHANGE LAYER,ROW,COL
 ------------------------------------------------------------------------------------------------------------------------------------
    0.000     (  1,  1,  1)   0.000     (  1,  1,  1)


                     STREAM MASS BUDGETS AT END OF TRANSPORT STEP  168, TIME STEP    1, STRESS PERIOD    3 FOR COMPONENT   1
                     -------------------------------------------------------------------------------------------------------

                                         CUMULATIVE MASS [M]                                     MASS FOR THIS TIME STEP [M]
                                         -------------------                                    --------------
                      STREAM DEPLETION =   1921.253                          STREAM DEPLETION =  0.2932175    
                      INFLOW TO STREAM =   4352.845                          INFLOW TO STREAM =   8.325000    
                          GW TO STREAM =   397.6196                              GW TO STREAM =  0.9990391    
                         PRECIPITATION =   0.000000                             PRECIPITATION =   0.000000    
                                RUNOFF =   0.000000                                    RUNOFF =   0.000000    
                CONSTANT CONCENTRATION =   0.000000                    CONSTANT CONCENTRATION =   0.000000    
                             MASS GAIN =   0.000000                                 MASS GAIN =   0.000000    
                                         -------------------                                    --------------
                              TOTAL IN =   6671.718                                  TOTAL IN =   9.617256    

                   STREAM ACCUMULATION =   1924.828                       STREAM ACCUMULATION =  0.6588947E-04
                        STREAM OUTFLOW =   4746.900                            STREAM OUTFLOW =   9.617192    
                          STREAM TO GW =   0.000000                              STREAM TO GW =   0.000000    
                CONSTANT CONCENTRATION =   0.000000                    CONSTANT CONCENTRATION =   0.000000    
                           EVAPORATION =   0.000000                               EVAPORATION =   0.000000    
                             MASS LOSS =   0.000000                                 MASS LOSS =   0.000000    
                                         -------------------                                    --------------
                             TOTAL OUT =   6671.728                                 TOTAL OUT =   9.617258    

                        NET (IN - OUT) = -0.1025391E-01                        NET (IN - OUT) = -0.1907349E-05
                 DISCREPANCY (PERCENT) = -0.1536920E-03                 DISCREPANCY (PERCENT) = -0.1983256E-04
                                              FLOW ERR (QIN-QOUT-DV) = -0.9536743E-06 [L3/T]




 >>>>>>>>>>>>>>>>>>>>>>>>>>>>>>>>>>>>>>>>>>>>>>>>>>>>>>>FOR COMPONENT NO. 01<<<<<<<<<<<<<<<<<<<<<<<<<<<<<<<<<<<<<<<<<<<<<<<<<<<<<<<


                                            -------------------------------------------
                                                      TRANSPORT STEP NO.  168
                                            -------------------------------------------

 TOTAL ELAPSED TIME SINCE BEGINNING OF SIMULATION =   71640.00    D   
 .....................................................................

                     CUMULATIVE MASS BUDGETS AT END OF TRANSPORT STEP  168, TIME STEP    1, STRESS PERIOD    3
                     -----------------------------------------------------------------------------------------

                                                             IN                           OUT
                                                      ----------------             ----------------
                               CONSTANT CONCENTRATION:    0.000000                    0.000000    
                                        CONSTANT HEAD:    894.2320                   -496.6166    
                                               STREAM:    0.000000                   -397.6196    
                               MASS STOR (FLOW MODEL):   0.5161509E-02              -0.6986623E-07
                                MASS STORAGE (SOLUTE):    0.000000                    0.000000    
                            ---------------------------------------------------------------------------
                                              [TOTAL]:    894.2372     KG            -894.2362     KG  

                                                          NET (IN - OUT):   0.9765625E-03
                                                   DISCREPANCY (PERCENT):   0.1092063E-03
     2 CALLS TO GCG PACKAGE FOR TRANSPORT TIME STEP   169 IN FLOW TIME STEP     1 STRESS PERIOD     3
      2 TOTAL ITERATIONS
  MAXIMUM CONCENTRATION CHANGES FOR EACH ITERATION:
  MAX. CHANGE LAYER,ROW,COL MAX. CHANGE LAYER,ROW,COL MAX. CHANGE LAYER,ROW,COL MAX. CHANGE LAYER,ROW,COL MAX. CHANGE LAYER,ROW,COL
 ------------------------------------------------------------------------------------------------------------------------------------
    0.000     (  1,  1,  1)   0.000     (  1,  1,  1)


                     STREAM MASS BUDGETS AT END OF TRANSPORT STEP  169, TIME STEP    1, STRESS PERIOD    3 FOR COMPONENT   1
                     -------------------------------------------------------------------------------------------------------

                                         CUMULATIVE MASS [M]                                     MASS FOR THIS TIME STEP [M]
                                         -------------------                                    --------------
                      STREAM DEPLETION =   1921.525                          STREAM DEPLETION =  0.2717282    
                      INFLOW TO STREAM =   4361.170                          INFLOW TO STREAM =   8.325000    
                          GW TO STREAM =   398.6186                              GW TO STREAM =  0.9990391    
                         PRECIPITATION =   0.000000                             PRECIPITATION =   0.000000    
                                RUNOFF =   0.000000                                    RUNOFF =   0.000000    
                CONSTANT CONCENTRATION =   0.000000                    CONSTANT CONCENTRATION =   0.000000    
                             MASS GAIN =   0.000000                                 MASS GAIN =   0.000000    
                                         -------------------                                    --------------
                              TOTAL IN =   6681.313                                  TOTAL IN =   9.595767    

                   STREAM ACCUMULATION =   1924.828                       STREAM ACCUMULATION =  0.6320906E-04
                        STREAM OUTFLOW =   4756.496                            STREAM OUTFLOW =   9.595706    
                          STREAM TO GW =   0.000000                              STREAM TO GW =   0.000000    
                CONSTANT CONCENTRATION =   0.000000                    CONSTANT CONCENTRATION =   0.000000    
                           EVAPORATION =   0.000000                               EVAPORATION =   0.000000    
                             MASS LOSS =   0.000000                                 MASS LOSS =   0.000000    
                                         -------------------                                    --------------
                             TOTAL OUT =   6681.324                                 TOTAL OUT =   9.595769    

                        NET (IN - OUT) = -0.1025391E-01                        NET (IN - OUT) = -0.1907349E-05
                 DISCREPANCY (PERCENT) = -0.1534713E-03                 DISCREPANCY (PERCENT) = -0.1987698E-04
                                              FLOW ERR (QIN-QOUT-DV) = -0.9536743E-06 [L3/T]




 >>>>>>>>>>>>>>>>>>>>>>>>>>>>>>>>>>>>>>>>>>>>>>>>>>>>>>>FOR COMPONENT NO. 01<<<<<<<<<<<<<<<<<<<<<<<<<<<<<<<<<<<<<<<<<<<<<<<<<<<<<<<


                                            -------------------------------------------
                                                      TRANSPORT STEP NO.  169
                                            -------------------------------------------

 TOTAL ELAPSED TIME SINCE BEGINNING OF SIMULATION =   71820.00    D   
 .....................................................................

                     CUMULATIVE MASS BUDGETS AT END OF TRANSPORT STEP  169, TIME STEP    1, STRESS PERIOD    3
                     -----------------------------------------------------------------------------------------

                                                             IN                           OUT
                                                      ----------------             ----------------
                               CONSTANT CONCENTRATION:    0.000000                    0.000000    
                                        CONSTANT HEAD:    896.4788                   -497.8644    
                                               STREAM:    0.000000                   -398.6186    
                               MASS STOR (FLOW MODEL):   0.5161509E-02              -0.6986623E-07
                                MASS STORAGE (SOLUTE):    0.000000                    0.000000    
                            ---------------------------------------------------------------------------
                                              [TOTAL]:    896.4840     KG            -896.4830     KG  

                                                          NET (IN - OUT):   0.9765625E-03
                                                   DISCREPANCY (PERCENT):   0.1089326E-03
     2 CALLS TO GCG PACKAGE FOR TRANSPORT TIME STEP   170 IN FLOW TIME STEP     1 STRESS PERIOD     3
      2 TOTAL ITERATIONS
  MAXIMUM CONCENTRATION CHANGES FOR EACH ITERATION:
  MAX. CHANGE LAYER,ROW,COL MAX. CHANGE LAYER,ROW,COL MAX. CHANGE LAYER,ROW,COL MAX. CHANGE LAYER,ROW,COL MAX. CHANGE LAYER,ROW,COL
 ------------------------------------------------------------------------------------------------------------------------------------
    0.000     (  1,  1,  1)   0.000     (  1,  1,  1)


                     STREAM MASS BUDGETS AT END OF TRANSPORT STEP  170, TIME STEP    1, STRESS PERIOD    3 FOR COMPONENT   1
                     -------------------------------------------------------------------------------------------------------

                                         CUMULATIVE MASS [M]                                     MASS FOR THIS TIME STEP [M]
                                         -------------------                                    --------------
                      STREAM DEPLETION =   1921.776                          STREAM DEPLETION =  0.2517376    
                      INFLOW TO STREAM =   4369.496                          INFLOW TO STREAM =   8.325000    
                          GW TO STREAM =   399.6177                              GW TO STREAM =  0.9990391    
                         PRECIPITATION =   0.000000                             PRECIPITATION =   0.000000    
                                RUNOFF =   0.000000                                    RUNOFF =   0.000000    
                CONSTANT CONCENTRATION =   0.000000                    CONSTANT CONCENTRATION =   0.000000    
                             MASS GAIN =   0.000000                                 MASS GAIN =   0.000000    
                                         -------------------                                    --------------
                              TOTAL IN =   6690.890                                  TOTAL IN =   9.575776    

                   STREAM ACCUMULATION =   1924.828                       STREAM ACCUMULATION =  0.6063677E-04
                        STREAM OUTFLOW =   4766.071                            STREAM OUTFLOW =   9.575718    
                          STREAM TO GW =   0.000000                              STREAM TO GW =   0.000000    
                CONSTANT CONCENTRATION =   0.000000                    CONSTANT CONCENTRATION =   0.000000    
                           EVAPORATION =   0.000000                               EVAPORATION =   0.000000    
                             MASS LOSS =   0.000000                                 MASS LOSS =   0.000000    
                                         -------------------                                    --------------
                             TOTAL OUT =   6690.899                                 TOTAL OUT =   9.575779    

                        NET (IN - OUT) = -0.9765625E-02                        NET (IN - OUT) = -0.2861023E-05
                 DISCREPANCY (PERCENT) = -0.1459539E-03                 DISCREPANCY (PERCENT) = -0.2987771E-04
                                              FLOW ERR (QIN-QOUT-DV) = -0.9536743E-06 [L3/T]




 >>>>>>>>>>>>>>>>>>>>>>>>>>>>>>>>>>>>>>>>>>>>>>>>>>>>>>>FOR COMPONENT NO. 01<<<<<<<<<<<<<<<<<<<<<<<<<<<<<<<<<<<<<<<<<<<<<<<<<<<<<<<


                                            -------------------------------------------
                                                      TRANSPORT STEP NO.  170
                                            -------------------------------------------

 TOTAL ELAPSED TIME SINCE BEGINNING OF SIMULATION =   72000.00    D   
 .....................................................................

                     CUMULATIVE MASS BUDGETS AT END OF TRANSPORT STEP  170, TIME STEP    1, STRESS PERIOD    3
                     -----------------------------------------------------------------------------------------

                                                             IN                           OUT
                                                      ----------------             ----------------
                               CONSTANT CONCENTRATION:    0.000000                    0.000000    
                                        CONSTANT HEAD:    898.7256                   -499.1122    
                                               STREAM:    0.000000                   -399.6177    
                               MASS STOR (FLOW MODEL):   0.5161509E-02              -0.6986623E-07
                                MASS STORAGE (SOLUTE):    0.000000                    0.000000    
                            ---------------------------------------------------------------------------
                                              [TOTAL]:    898.7308     KG            -898.7299     KG  

                                                          NET (IN - OUT):   0.9765625E-03
                                                   DISCREPANCY (PERCENT):   0.1086602E-03
     2 CALLS TO GCG PACKAGE FOR TRANSPORT TIME STEP   171 IN FLOW TIME STEP     1 STRESS PERIOD     3
      2 TOTAL ITERATIONS
  MAXIMUM CONCENTRATION CHANGES FOR EACH ITERATION:
  MAX. CHANGE LAYER,ROW,COL MAX. CHANGE LAYER,ROW,COL MAX. CHANGE LAYER,ROW,COL MAX. CHANGE LAYER,ROW,COL MAX. CHANGE LAYER,ROW,COL
 ------------------------------------------------------------------------------------------------------------------------------------
    0.000     (  1,  1,  1)   0.000     (  1,  1,  1)


                     STREAM MASS BUDGETS AT END OF TRANSPORT STEP  171, TIME STEP    1, STRESS PERIOD    3 FOR COMPONENT   1
                     -------------------------------------------------------------------------------------------------------

                                         CUMULATIVE MASS [M]                                     MASS FOR THIS TIME STEP [M]
                                         -------------------                                    --------------
                      STREAM DEPLETION =   1922.009                          STREAM DEPLETION =  0.2331492    
                      INFLOW TO STREAM =   4377.821                          INFLOW TO STREAM =   8.325000    
                          GW TO STREAM =   400.6167                              GW TO STREAM =  0.9990391    
                         PRECIPITATION =   0.000000                             PRECIPITATION =   0.000000    
                                RUNOFF =   0.000000                                    RUNOFF =   0.000000    
                CONSTANT CONCENTRATION =   0.000000                    CONSTANT CONCENTRATION =   0.000000    
                             MASS GAIN =   0.000000                                 MASS GAIN =   0.000000    
                                         -------------------                                    --------------
                              TOTAL IN =   6700.447                                  TOTAL IN =   9.557188    

                   STREAM ACCUMULATION =   1924.828                       STREAM ACCUMULATION =  0.5816825E-04
                        STREAM OUTFLOW =   4775.628                            STREAM OUTFLOW =   9.557132    
                          STREAM TO GW =   0.000000                              STREAM TO GW =   0.000000    
                CONSTANT CONCENTRATION =   0.000000                    CONSTANT CONCENTRATION =   0.000000    
                           EVAPORATION =   0.000000                               EVAPORATION =   0.000000    
                             MASS LOSS =   0.000000                                 MASS LOSS =   0.000000    
                                         -------------------                                    --------------
                             TOTAL OUT =   6700.457                                 TOTAL OUT =   9.557190    

                        NET (IN - OUT) = -0.9277344E-02                        NET (IN - OUT) = -0.1907349E-05
                 DISCREPANCY (PERCENT) = -0.1384585E-03                 DISCREPANCY (PERCENT) = -0.1995721E-04
                                              FLOW ERR (QIN-QOUT-DV) = -0.9536743E-06 [L3/T]




 >>>>>>>>>>>>>>>>>>>>>>>>>>>>>>>>>>>>>>>>>>>>>>>>>>>>>>>FOR COMPONENT NO. 01<<<<<<<<<<<<<<<<<<<<<<<<<<<<<<<<<<<<<<<<<<<<<<<<<<<<<<<


                                            -------------------------------------------
                                                      TRANSPORT STEP NO.  171
                                            -------------------------------------------

 TOTAL ELAPSED TIME SINCE BEGINNING OF SIMULATION =   72180.00    D   
 .....................................................................

                     CUMULATIVE MASS BUDGETS AT END OF TRANSPORT STEP  171, TIME STEP    1, STRESS PERIOD    3
                     -----------------------------------------------------------------------------------------

                                                             IN                           OUT
                                                      ----------------             ----------------
                               CONSTANT CONCENTRATION:    0.000000                    0.000000    
                                        CONSTANT HEAD:    900.9725                   -500.3600    
                                               STREAM:    0.000000                   -400.6167    
                               MASS STOR (FLOW MODEL):   0.5161509E-02              -0.6986623E-07
                                MASS STORAGE (SOLUTE):    0.000000                    0.000000    
                            ---------------------------------------------------------------------------
                                              [TOTAL]:    900.9777     KG            -900.9767     KG  

                                                          NET (IN - OUT):   0.9765625E-03
                                                   DISCREPANCY (PERCENT):   0.1083893E-03
     2 CALLS TO GCG PACKAGE FOR TRANSPORT TIME STEP   172 IN FLOW TIME STEP     1 STRESS PERIOD     3
      2 TOTAL ITERATIONS
  MAXIMUM CONCENTRATION CHANGES FOR EACH ITERATION:
  MAX. CHANGE LAYER,ROW,COL MAX. CHANGE LAYER,ROW,COL MAX. CHANGE LAYER,ROW,COL MAX. CHANGE LAYER,ROW,COL MAX. CHANGE LAYER,ROW,COL
 ------------------------------------------------------------------------------------------------------------------------------------
    0.000     (  1,  1,  1)   0.000     (  1,  1,  1)


                     STREAM MASS BUDGETS AT END OF TRANSPORT STEP  172, TIME STEP    1, STRESS PERIOD    3 FOR COMPONENT   1
                     -------------------------------------------------------------------------------------------------------

                                         CUMULATIVE MASS [M]                                     MASS FOR THIS TIME STEP [M]
                                         -------------------                                    --------------
                      STREAM DEPLETION =   1922.225                          STREAM DEPLETION =  0.2158718    
                      INFLOW TO STREAM =   4386.146                          INFLOW TO STREAM =   8.325000    
                          GW TO STREAM =   401.6158                              GW TO STREAM =  0.9990391    
                         PRECIPITATION =   0.000000                             PRECIPITATION =   0.000000    
                                RUNOFF =   0.000000                                    RUNOFF =   0.000000    
                CONSTANT CONCENTRATION =   0.000000                    CONSTANT CONCENTRATION =   0.000000    
                             MASS GAIN =   0.000000                                 MASS GAIN =   0.000000    
                                         -------------------                                    --------------
                              TOTAL IN =   6709.987                                  TOTAL IN =   9.539910    

                   STREAM ACCUMULATION =   1924.828                       STREAM ACCUMULATION =  0.5579938E-04
                        STREAM OUTFLOW =   4785.168                            STREAM OUTFLOW =   9.539857    
                          STREAM TO GW =   0.000000                              STREAM TO GW =   0.000000    
                CONSTANT CONCENTRATION =   0.000000                    CONSTANT CONCENTRATION =   0.000000    
                           EVAPORATION =   0.000000                               EVAPORATION =   0.000000    
                             MASS LOSS =   0.000000                                 MASS LOSS =   0.000000    
                                         -------------------                                    --------------
                             TOTAL OUT =   6709.997                                 TOTAL OUT =   9.539913    

                        NET (IN - OUT) = -0.9277344E-02                        NET (IN - OUT) = -0.2861023E-05
                 DISCREPANCY (PERCENT) = -0.1382616E-03                 DISCREPANCY (PERCENT) = -0.2999004E-04
                                              FLOW ERR (QIN-QOUT-DV) = -0.9536743E-06 [L3/T]




 >>>>>>>>>>>>>>>>>>>>>>>>>>>>>>>>>>>>>>>>>>>>>>>>>>>>>>>FOR COMPONENT NO. 01<<<<<<<<<<<<<<<<<<<<<<<<<<<<<<<<<<<<<<<<<<<<<<<<<<<<<<<


                                            -------------------------------------------
                                                      TRANSPORT STEP NO.  172
                                            -------------------------------------------

 TOTAL ELAPSED TIME SINCE BEGINNING OF SIMULATION =   72360.00    D   
 .....................................................................

                     CUMULATIVE MASS BUDGETS AT END OF TRANSPORT STEP  172, TIME STEP    1, STRESS PERIOD    3
                     -----------------------------------------------------------------------------------------

                                                             IN                           OUT
                                                      ----------------             ----------------
                               CONSTANT CONCENTRATION:    0.000000                    0.000000    
                                        CONSTANT HEAD:    903.2193                   -501.6077    
                                               STREAM:    0.000000                   -401.6158    
                               MASS STOR (FLOW MODEL):   0.5161509E-02              -0.6986623E-07
                                MASS STORAGE (SOLUTE):    0.000000                    0.000000    
                            ---------------------------------------------------------------------------
                                              [TOTAL]:    903.2245     KG            -903.2235     KG  

                                                          NET (IN - OUT):   0.9765625E-03
                                                   DISCREPANCY (PERCENT):   0.1081196E-03
     2 CALLS TO GCG PACKAGE FOR TRANSPORT TIME STEP   173 IN FLOW TIME STEP     1 STRESS PERIOD     3
      2 TOTAL ITERATIONS
  MAXIMUM CONCENTRATION CHANGES FOR EACH ITERATION:
  MAX. CHANGE LAYER,ROW,COL MAX. CHANGE LAYER,ROW,COL MAX. CHANGE LAYER,ROW,COL MAX. CHANGE LAYER,ROW,COL MAX. CHANGE LAYER,ROW,COL
 ------------------------------------------------------------------------------------------------------------------------------------
    0.000     (  1,  1,  1)   0.000     (  1,  1,  1)


                     STREAM MASS BUDGETS AT END OF TRANSPORT STEP  173, TIME STEP    1, STRESS PERIOD    3 FOR COMPONENT   1
                     -------------------------------------------------------------------------------------------------------

                                         CUMULATIVE MASS [M]                                     MASS FOR THIS TIME STEP [M]
                                         -------------------                                    --------------
                      STREAM DEPLETION =   1922.425                          STREAM DEPLETION =  0.1998191    
                      INFLOW TO STREAM =   4394.471                          INFLOW TO STREAM =   8.325000    
                          GW TO STREAM =   402.6148                              GW TO STREAM =  0.9990391    
                         PRECIPITATION =   0.000000                             PRECIPITATION =   0.000000    
                                RUNOFF =   0.000000                                    RUNOFF =   0.000000    
                CONSTANT CONCENTRATION =   0.000000                    CONSTANT CONCENTRATION =   0.000000    
                             MASS GAIN =   0.000000                                 MASS GAIN =   0.000000    
                                         -------------------                                    --------------
                              TOTAL IN =   6719.511                                  TOTAL IN =   9.523857    

                   STREAM ACCUMULATION =   1924.828                       STREAM ACCUMULATION =  0.5352615E-04
                        STREAM OUTFLOW =   4794.692                            STREAM OUTFLOW =   9.523807    
                          STREAM TO GW =   0.000000                              STREAM TO GW =   0.000000    
                CONSTANT CONCENTRATION =   0.000000                    CONSTANT CONCENTRATION =   0.000000    
                           EVAPORATION =   0.000000                               EVAPORATION =   0.000000    
                             MASS LOSS =   0.000000                                 MASS LOSS =   0.000000    
                                         -------------------                                    --------------
                             TOTAL OUT =   6719.521                                 TOTAL OUT =   9.523860    

                        NET (IN - OUT) = -0.9765625E-02                        NET (IN - OUT) = -0.2861023E-05
                 DISCREPANCY (PERCENT) = -0.1453323E-03                 DISCREPANCY (PERCENT) = -0.3004058E-04
                                              FLOW ERR (QIN-QOUT-DV) = -0.9536743E-06 [L3/T]




 >>>>>>>>>>>>>>>>>>>>>>>>>>>>>>>>>>>>>>>>>>>>>>>>>>>>>>>FOR COMPONENT NO. 01<<<<<<<<<<<<<<<<<<<<<<<<<<<<<<<<<<<<<<<<<<<<<<<<<<<<<<<


                                            -------------------------------------------
                                                      TRANSPORT STEP NO.  173
                                            -------------------------------------------

 TOTAL ELAPSED TIME SINCE BEGINNING OF SIMULATION =   72540.00    D   
 .....................................................................

                     CUMULATIVE MASS BUDGETS AT END OF TRANSPORT STEP  173, TIME STEP    1, STRESS PERIOD    3
                     -----------------------------------------------------------------------------------------

                                                             IN                           OUT
                                                      ----------------             ----------------
                               CONSTANT CONCENTRATION:    0.000000                    0.000000    
                                        CONSTANT HEAD:    905.4661                   -502.8555    
                                               STREAM:    0.000000                   -402.6148    
                               MASS STOR (FLOW MODEL):   0.5161509E-02              -0.6986623E-07
                                MASS STORAGE (SOLUTE):    0.000000                    0.000000    
                            ---------------------------------------------------------------------------
                                              [TOTAL]:    905.4713     KG            -905.4703     KG  

                                                          NET (IN - OUT):   0.9765625E-03
                                                   DISCREPANCY (PERCENT):   0.1078514E-03
     2 CALLS TO GCG PACKAGE FOR TRANSPORT TIME STEP   174 IN FLOW TIME STEP     1 STRESS PERIOD     3
      2 TOTAL ITERATIONS
  MAXIMUM CONCENTRATION CHANGES FOR EACH ITERATION:
  MAX. CHANGE LAYER,ROW,COL MAX. CHANGE LAYER,ROW,COL MAX. CHANGE LAYER,ROW,COL MAX. CHANGE LAYER,ROW,COL MAX. CHANGE LAYER,ROW,COL
 ------------------------------------------------------------------------------------------------------------------------------------
    0.000     (  1,  1,  1)   0.000     (  1,  1,  1)


                     STREAM MASS BUDGETS AT END OF TRANSPORT STEP  174, TIME STEP    1, STRESS PERIOD    3 FOR COMPONENT   1
                     -------------------------------------------------------------------------------------------------------

                                         CUMULATIVE MASS [M]                                     MASS FOR THIS TIME STEP [M]
                                         -------------------                                    --------------
                      STREAM DEPLETION =   1922.610                          STREAM DEPLETION =  0.1849102    
                      INFLOW TO STREAM =   4402.796                          INFLOW TO STREAM =   8.325000    
                          GW TO STREAM =   403.6139                              GW TO STREAM =  0.9990391    
                         PRECIPITATION =   0.000000                             PRECIPITATION =   0.000000    
                                RUNOFF =   0.000000                                    RUNOFF =   0.000000    
                CONSTANT CONCENTRATION =   0.000000                    CONSTANT CONCENTRATION =   0.000000    
                             MASS GAIN =   0.000000                                 MASS GAIN =   0.000000    
                                         -------------------                                    --------------
                              TOTAL IN =   6729.021                                  TOTAL IN =   9.508948    

                   STREAM ACCUMULATION =   1924.828                       STREAM ACCUMULATION =  0.5134477E-04
                        STREAM OUTFLOW =   4804.201                            STREAM OUTFLOW =   9.508900    
                          STREAM TO GW =   0.000000                              STREAM TO GW =   0.000000    
                CONSTANT CONCENTRATION =   0.000000                    CONSTANT CONCENTRATION =   0.000000    
                           EVAPORATION =   0.000000                               EVAPORATION =   0.000000    
                             MASS LOSS =   0.000000                                 MASS LOSS =   0.000000    
                                         -------------------                                    --------------
                             TOTAL OUT =   6729.029                                 TOTAL OUT =   9.508951    

                        NET (IN - OUT) = -0.8789062E-02                        NET (IN - OUT) = -0.2861023E-05
                 DISCREPANCY (PERCENT) = -0.1306142E-03                 DISCREPANCY (PERCENT) = -0.3008769E-04
                                              FLOW ERR (QIN-QOUT-DV) = -0.9536743E-06 [L3/T]




 >>>>>>>>>>>>>>>>>>>>>>>>>>>>>>>>>>>>>>>>>>>>>>>>>>>>>>>FOR COMPONENT NO. 01<<<<<<<<<<<<<<<<<<<<<<<<<<<<<<<<<<<<<<<<<<<<<<<<<<<<<<<


                                            -------------------------------------------
                                                      TRANSPORT STEP NO.  174
                                            -------------------------------------------

 TOTAL ELAPSED TIME SINCE BEGINNING OF SIMULATION =   72720.00    D   
 .....................................................................

                     CUMULATIVE MASS BUDGETS AT END OF TRANSPORT STEP  174, TIME STEP    1, STRESS PERIOD    3
                     -----------------------------------------------------------------------------------------

                                                             IN                           OUT
                                                      ----------------             ----------------
                               CONSTANT CONCENTRATION:    0.000000                    0.000000    
                                        CONSTANT HEAD:    907.7130                   -504.1033    
                                               STREAM:    0.000000                   -403.6139    
                               MASS STOR (FLOW MODEL):   0.5161509E-02              -0.6986623E-07
                                MASS STORAGE (SOLUTE):    0.000000                    0.000000    
                            ---------------------------------------------------------------------------
                                              [TOTAL]:    907.7181     KG            -907.7172     KG  

                                                          NET (IN - OUT):   0.9765625E-03
                                                   DISCREPANCY (PERCENT):   0.1075844E-03
     2 CALLS TO GCG PACKAGE FOR TRANSPORT TIME STEP   175 IN FLOW TIME STEP     1 STRESS PERIOD     3
      2 TOTAL ITERATIONS
  MAXIMUM CONCENTRATION CHANGES FOR EACH ITERATION:
  MAX. CHANGE LAYER,ROW,COL MAX. CHANGE LAYER,ROW,COL MAX. CHANGE LAYER,ROW,COL MAX. CHANGE LAYER,ROW,COL MAX. CHANGE LAYER,ROW,COL
 ------------------------------------------------------------------------------------------------------------------------------------
    0.000     (  1,  1,  1)   0.000     (  1,  1,  1)


                     STREAM MASS BUDGETS AT END OF TRANSPORT STEP  175, TIME STEP    1, STRESS PERIOD    3 FOR COMPONENT   1
                     -------------------------------------------------------------------------------------------------------

                                         CUMULATIVE MASS [M]                                     MASS FOR THIS TIME STEP [M]
                                         -------------------                                    --------------
                      STREAM DEPLETION =   1922.781                          STREAM DEPLETION =  0.1710687    
                      INFLOW TO STREAM =   4411.122                          INFLOW TO STREAM =   8.325000    
                          GW TO STREAM =   404.6129                              GW TO STREAM =  0.9990391    
                         PRECIPITATION =   0.000000                             PRECIPITATION =   0.000000    
                                RUNOFF =   0.000000                                    RUNOFF =   0.000000    
                CONSTANT CONCENTRATION =   0.000000                    CONSTANT CONCENTRATION =   0.000000    
                             MASS GAIN =   0.000000                                 MASS GAIN =   0.000000    
                                         -------------------                                    --------------
                              TOTAL IN =   6738.516                                  TOTAL IN =   9.495108    

                   STREAM ACCUMULATION =   1924.828                       STREAM ACCUMULATION =  0.4925154E-04
                        STREAM OUTFLOW =   4813.696                            STREAM OUTFLOW =   9.495060    
                          STREAM TO GW =   0.000000                              STREAM TO GW =   0.000000    
                CONSTANT CONCENTRATION =   0.000000                    CONSTANT CONCENTRATION =   0.000000    
                           EVAPORATION =   0.000000                               EVAPORATION =   0.000000    
                             MASS LOSS =   0.000000                                 MASS LOSS =   0.000000    
                                         -------------------                                    --------------
                             TOTAL OUT =   6738.524                                 TOTAL OUT =   9.495110    

                        NET (IN - OUT) = -0.8789062E-02                        NET (IN - OUT) = -0.1907349E-05
                 DISCREPANCY (PERCENT) = -0.1304302E-03                 DISCREPANCY (PERCENT) = -0.2008770E-04
                                              FLOW ERR (QIN-QOUT-DV) = -0.9536743E-06 [L3/T]




 >>>>>>>>>>>>>>>>>>>>>>>>>>>>>>>>>>>>>>>>>>>>>>>>>>>>>>>FOR COMPONENT NO. 01<<<<<<<<<<<<<<<<<<<<<<<<<<<<<<<<<<<<<<<<<<<<<<<<<<<<<<<


                                            -------------------------------------------
                                                      TRANSPORT STEP NO.  175
                                            -------------------------------------------

 TOTAL ELAPSED TIME SINCE BEGINNING OF SIMULATION =   72900.00    D   
 .....................................................................

                     CUMULATIVE MASS BUDGETS AT END OF TRANSPORT STEP  175, TIME STEP    1, STRESS PERIOD    3
                     -----------------------------------------------------------------------------------------

                                                             IN                           OUT
                                                      ----------------             ----------------
                               CONSTANT CONCENTRATION:    0.000000                    0.000000    
                                        CONSTANT HEAD:    909.9598                   -505.3510    
                                               STREAM:    0.000000                   -404.6129    
                               MASS STOR (FLOW MODEL):   0.5161509E-02              -0.6986623E-07
                                MASS STORAGE (SOLUTE):    0.000000                    0.000000    
                            ---------------------------------------------------------------------------
                                              [TOTAL]:    909.9650     KG            -909.9640     KG  

                                                          NET (IN - OUT):   0.9765625E-03
                                                   DISCREPANCY (PERCENT):   0.1073188E-03
     2 CALLS TO GCG PACKAGE FOR TRANSPORT TIME STEP   176 IN FLOW TIME STEP     1 STRESS PERIOD     3
      2 TOTAL ITERATIONS
  MAXIMUM CONCENTRATION CHANGES FOR EACH ITERATION:
  MAX. CHANGE LAYER,ROW,COL MAX. CHANGE LAYER,ROW,COL MAX. CHANGE LAYER,ROW,COL MAX. CHANGE LAYER,ROW,COL MAX. CHANGE LAYER,ROW,COL
 ------------------------------------------------------------------------------------------------------------------------------------
    0.000     (  1,  1,  1)   0.000     (  1,  1,  1)


                     STREAM MASS BUDGETS AT END OF TRANSPORT STEP  176, TIME STEP    1, STRESS PERIOD    3 FOR COMPONENT   1
                     -------------------------------------------------------------------------------------------------------

                                         CUMULATIVE MASS [M]                                     MASS FOR THIS TIME STEP [M]
                                         -------------------                                    --------------
                      STREAM DEPLETION =   1922.939                          STREAM DEPLETION =  0.1582230    
                      INFLOW TO STREAM =   4419.447                          INFLOW TO STREAM =   8.325000    
                          GW TO STREAM =   405.6120                              GW TO STREAM =  0.9990391    
                         PRECIPITATION =   0.000000                             PRECIPITATION =   0.000000    
                                RUNOFF =   0.000000                                    RUNOFF =   0.000000    
                CONSTANT CONCENTRATION =   0.000000                    CONSTANT CONCENTRATION =   0.000000    
                             MASS GAIN =   0.000000                                 MASS GAIN =   0.000000    
                                         -------------------                                    --------------
                              TOTAL IN =   6747.998                                  TOTAL IN =   9.482262    

                   STREAM ACCUMULATION =   1924.828                       STREAM ACCUMULATION =  0.4724294E-04
                        STREAM OUTFLOW =   4823.179                            STREAM OUTFLOW =   9.482217    
                          STREAM TO GW =   0.000000                              STREAM TO GW =   0.000000    
                CONSTANT CONCENTRATION =   0.000000                    CONSTANT CONCENTRATION =   0.000000    
                           EVAPORATION =   0.000000                               EVAPORATION =   0.000000    
                             MASS LOSS =   0.000000                                 MASS LOSS =   0.000000    
                                         -------------------                                    --------------
                             TOTAL OUT =   6748.007                                 TOTAL OUT =   9.482265    

                        NET (IN - OUT) = -0.8789062E-02                        NET (IN - OUT) = -0.2861023E-05
                 DISCREPANCY (PERCENT) = -0.1302469E-03                 DISCREPANCY (PERCENT) = -0.3017236E-04
                                              FLOW ERR (QIN-QOUT-DV) = -0.9536743E-06 [L3/T]




 >>>>>>>>>>>>>>>>>>>>>>>>>>>>>>>>>>>>>>>>>>>>>>>>>>>>>>>FOR COMPONENT NO. 01<<<<<<<<<<<<<<<<<<<<<<<<<<<<<<<<<<<<<<<<<<<<<<<<<<<<<<<


                                            -------------------------------------------
                                                      TRANSPORT STEP NO.  176
                                            -------------------------------------------

 TOTAL ELAPSED TIME SINCE BEGINNING OF SIMULATION =   73080.00    D   
 .....................................................................

                     CUMULATIVE MASS BUDGETS AT END OF TRANSPORT STEP  176, TIME STEP    1, STRESS PERIOD    3
                     -----------------------------------------------------------------------------------------

                                                             IN                           OUT
                                                      ----------------             ----------------
                               CONSTANT CONCENTRATION:    0.000000                    0.000000    
                                        CONSTANT HEAD:    912.2066                   -506.5988    
                                               STREAM:    0.000000                   -405.6120    
                               MASS STOR (FLOW MODEL):   0.5161509E-02              -0.6986623E-07
                                MASS STORAGE (SOLUTE):    0.000000                    0.000000    
                            ---------------------------------------------------------------------------
                                              [TOTAL]:    912.2118     KG            -912.2108     KG  

                                                          NET (IN - OUT):   0.9765625E-03
                                                   DISCREPANCY (PERCENT):   0.1070544E-03
     2 CALLS TO GCG PACKAGE FOR TRANSPORT TIME STEP   177 IN FLOW TIME STEP     1 STRESS PERIOD     3
      2 TOTAL ITERATIONS
  MAXIMUM CONCENTRATION CHANGES FOR EACH ITERATION:
  MAX. CHANGE LAYER,ROW,COL MAX. CHANGE LAYER,ROW,COL MAX. CHANGE LAYER,ROW,COL MAX. CHANGE LAYER,ROW,COL MAX. CHANGE LAYER,ROW,COL
 ------------------------------------------------------------------------------------------------------------------------------------
    0.000     (  1,  1,  1)   0.000     (  1,  1,  1)


                     STREAM MASS BUDGETS AT END OF TRANSPORT STEP  177, TIME STEP    1, STRESS PERIOD    3 FOR COMPONENT   1
                     -------------------------------------------------------------------------------------------------------

                                         CUMULATIVE MASS [M]                                     MASS FOR THIS TIME STEP [M]
                                         -------------------                                    --------------
                      STREAM DEPLETION =   1923.086                          STREAM DEPLETION =  0.1463055    
                      INFLOW TO STREAM =   4427.772                          INFLOW TO STREAM =   8.325000    
                          GW TO STREAM =   406.6111                              GW TO STREAM =  0.9990391    
                         PRECIPITATION =   0.000000                             PRECIPITATION =   0.000000    
                                RUNOFF =   0.000000                                    RUNOFF =   0.000000    
                CONSTANT CONCENTRATION =   0.000000                    CONSTANT CONCENTRATION =   0.000000    
                             MASS GAIN =   0.000000                                 MASS GAIN =   0.000000    
                                         -------------------                                    --------------
                              TOTAL IN =   6757.469                                  TOTAL IN =   9.470344    

                   STREAM ACCUMULATION =   1924.828                       STREAM ACCUMULATION =  0.4531560E-04
                        STREAM OUTFLOW =   4832.649                            STREAM OUTFLOW =   9.470301    
                          STREAM TO GW =   0.000000                              STREAM TO GW =   0.000000    
                CONSTANT CONCENTRATION =   0.000000                    CONSTANT CONCENTRATION =   0.000000    
                           EVAPORATION =   0.000000                               EVAPORATION =   0.000000    
                             MASS LOSS =   0.000000                                 MASS LOSS =   0.000000    
                                         -------------------                                    --------------
                             TOTAL OUT =   6757.477                                 TOTAL OUT =   9.470346    

                        NET (IN - OUT) = -0.8300781E-02                        NET (IN - OUT) = -0.2861023E-05
                 DISCREPANCY (PERCENT) = -0.1228386E-03                 DISCREPANCY (PERCENT) = -0.3021034E-04
                                              FLOW ERR (QIN-QOUT-DV) = -0.9536743E-06 [L3/T]




 >>>>>>>>>>>>>>>>>>>>>>>>>>>>>>>>>>>>>>>>>>>>>>>>>>>>>>>FOR COMPONENT NO. 01<<<<<<<<<<<<<<<<<<<<<<<<<<<<<<<<<<<<<<<<<<<<<<<<<<<<<<<


                                            -------------------------------------------
                                                      TRANSPORT STEP NO.  177
                                            -------------------------------------------

 TOTAL ELAPSED TIME SINCE BEGINNING OF SIMULATION =   73260.00    D   
 .....................................................................

                     CUMULATIVE MASS BUDGETS AT END OF TRANSPORT STEP  177, TIME STEP    1, STRESS PERIOD    3
                     -----------------------------------------------------------------------------------------

                                                             IN                           OUT
                                                      ----------------             ----------------
                               CONSTANT CONCENTRATION:    0.000000                    0.000000    
                                        CONSTANT HEAD:    914.4534                   -507.8466    
                                               STREAM:    0.000000                   -406.6111    
                               MASS STOR (FLOW MODEL):   0.5161509E-02              -0.6986623E-07
                                MASS STORAGE (SOLUTE):    0.000000                    0.000000    
                            ---------------------------------------------------------------------------
                                              [TOTAL]:    914.4586     KG            -914.4576     KG  

                                                          NET (IN - OUT):   0.9765625E-03
                                                   DISCREPANCY (PERCENT):   0.1067914E-03
     2 CALLS TO GCG PACKAGE FOR TRANSPORT TIME STEP   178 IN FLOW TIME STEP     1 STRESS PERIOD     3
      2 TOTAL ITERATIONS
  MAXIMUM CONCENTRATION CHANGES FOR EACH ITERATION:
  MAX. CHANGE LAYER,ROW,COL MAX. CHANGE LAYER,ROW,COL MAX. CHANGE LAYER,ROW,COL MAX. CHANGE LAYER,ROW,COL MAX. CHANGE LAYER,ROW,COL
 ------------------------------------------------------------------------------------------------------------------------------------
    0.000     (  1,  1,  1)   0.000     (  1,  1,  1)


                     STREAM MASS BUDGETS AT END OF TRANSPORT STEP  178, TIME STEP    1, STRESS PERIOD    3 FOR COMPONENT   1
                     -------------------------------------------------------------------------------------------------------

                                         CUMULATIVE MASS [M]                                     MASS FOR THIS TIME STEP [M]
                                         -------------------                                    --------------
                      STREAM DEPLETION =   1923.221                          STREAM DEPLETION =  0.1352531    
                      INFLOW TO STREAM =   4436.097                          INFLOW TO STREAM =   8.325000    
                          GW TO STREAM =   407.6101                              GW TO STREAM =  0.9990391    
                         PRECIPITATION =   0.000000                             PRECIPITATION =   0.000000    
                                RUNOFF =   0.000000                                    RUNOFF =   0.000000    
                CONSTANT CONCENTRATION =   0.000000                    CONSTANT CONCENTRATION =   0.000000    
                             MASS GAIN =   0.000000                                 MASS GAIN =   0.000000    
                                         -------------------                                    --------------
                              TOTAL IN =   6766.928                                  TOTAL IN =   9.459291    

                   STREAM ACCUMULATION =   1924.828                       STREAM ACCUMULATION =  0.4346629E-04
                        STREAM OUTFLOW =   4842.108                            STREAM OUTFLOW =   9.459250    
                          STREAM TO GW =   0.000000                              STREAM TO GW =   0.000000    
                CONSTANT CONCENTRATION =   0.000000                    CONSTANT CONCENTRATION =   0.000000    
                           EVAPORATION =   0.000000                               EVAPORATION =   0.000000    
                             MASS LOSS =   0.000000                                 MASS LOSS =   0.000000    
                                         -------------------                                    --------------
                             TOTAL OUT =   6766.937                                 TOTAL OUT =   9.459294    

                        NET (IN - OUT) = -0.8300781E-02                        NET (IN - OUT) = -0.2861023E-05
                 DISCREPANCY (PERCENT) = -0.1226668E-03                 DISCREPANCY (PERCENT) = -0.3024563E-04
                                              FLOW ERR (QIN-QOUT-DV) = -0.9536743E-06 [L3/T]




 >>>>>>>>>>>>>>>>>>>>>>>>>>>>>>>>>>>>>>>>>>>>>>>>>>>>>>>FOR COMPONENT NO. 01<<<<<<<<<<<<<<<<<<<<<<<<<<<<<<<<<<<<<<<<<<<<<<<<<<<<<<<


                                            -------------------------------------------
                                                      TRANSPORT STEP NO.  178
                                            -------------------------------------------

 TOTAL ELAPSED TIME SINCE BEGINNING OF SIMULATION =   73440.00    D   
 .....................................................................

                     CUMULATIVE MASS BUDGETS AT END OF TRANSPORT STEP  178, TIME STEP    1, STRESS PERIOD    3
                     -----------------------------------------------------------------------------------------

                                                             IN                           OUT
                                                      ----------------             ----------------
                               CONSTANT CONCENTRATION:    0.000000                    0.000000    
                                        CONSTANT HEAD:    916.7003                   -509.0944    
                                               STREAM:    0.000000                   -407.6101    
                               MASS STOR (FLOW MODEL):   0.5161509E-02              -0.6986623E-07
                                MASS STORAGE (SOLUTE):    0.000000                    0.000000    
                            ---------------------------------------------------------------------------
                                              [TOTAL]:    916.7054     KG            -916.7045     KG  

                                                          NET (IN - OUT):   0.9765625E-03
                                                   DISCREPANCY (PERCENT):   0.1065296E-03
     2 CALLS TO GCG PACKAGE FOR TRANSPORT TIME STEP   179 IN FLOW TIME STEP     1 STRESS PERIOD     3
      2 TOTAL ITERATIONS
  MAXIMUM CONCENTRATION CHANGES FOR EACH ITERATION:
  MAX. CHANGE LAYER,ROW,COL MAX. CHANGE LAYER,ROW,COL MAX. CHANGE LAYER,ROW,COL MAX. CHANGE LAYER,ROW,COL MAX. CHANGE LAYER,ROW,COL
 ------------------------------------------------------------------------------------------------------------------------------------
    0.000     (  1,  1,  1)   0.000     (  1,  1,  1)


                     STREAM MASS BUDGETS AT END OF TRANSPORT STEP  179, TIME STEP    1, STRESS PERIOD    3 FOR COMPONENT   1
                     -------------------------------------------------------------------------------------------------------

                                         CUMULATIVE MASS [M]                                     MASS FOR THIS TIME STEP [M]
                                         -------------------                                    --------------
                      STREAM DEPLETION =   1923.346                          STREAM DEPLETION =  0.1250062    
                      INFLOW TO STREAM =   4444.422                          INFLOW TO STREAM =   8.325000    
                          GW TO STREAM =   408.6092                              GW TO STREAM =  0.9990391    
                         PRECIPITATION =   0.000000                             PRECIPITATION =   0.000000    
                                RUNOFF =   0.000000                                    RUNOFF =   0.000000    
                CONSTANT CONCENTRATION =   0.000000                    CONSTANT CONCENTRATION =   0.000000    
                             MASS GAIN =   0.000000                                 MASS GAIN =   0.000000    
                                         -------------------                                    --------------
                              TOTAL IN =   6776.377                                  TOTAL IN =   9.449045    

                   STREAM ACCUMULATION =   1924.828                       STREAM ACCUMULATION =  0.4169184E-04
                        STREAM OUTFLOW =   4851.558                            STREAM OUTFLOW =   9.449005    
                          STREAM TO GW =   0.000000                              STREAM TO GW =   0.000000    
                CONSTANT CONCENTRATION =   0.000000                    CONSTANT CONCENTRATION =   0.000000    
                           EVAPORATION =   0.000000                               EVAPORATION =   0.000000    
                             MASS LOSS =   0.000000                                 MASS LOSS =   0.000000    
                                         -------------------                                    --------------
                             TOTAL OUT =   6776.386                                 TOTAL OUT =   9.449047    

                        NET (IN - OUT) = -0.8300781E-02                        NET (IN - OUT) = -0.1907349E-05
                 DISCREPANCY (PERCENT) = -0.1224958E-03                 DISCREPANCY (PERCENT) = -0.2018562E-04
                                              FLOW ERR (QIN-QOUT-DV) = -0.9536743E-06 [L3/T]




 >>>>>>>>>>>>>>>>>>>>>>>>>>>>>>>>>>>>>>>>>>>>>>>>>>>>>>>FOR COMPONENT NO. 01<<<<<<<<<<<<<<<<<<<<<<<<<<<<<<<<<<<<<<<<<<<<<<<<<<<<<<<


                                            -------------------------------------------
                                                      TRANSPORT STEP NO.  179
                                            -------------------------------------------

 TOTAL ELAPSED TIME SINCE BEGINNING OF SIMULATION =   73620.00    D   
 .....................................................................

                     CUMULATIVE MASS BUDGETS AT END OF TRANSPORT STEP  179, TIME STEP    1, STRESS PERIOD    3
                     -----------------------------------------------------------------------------------------

                                                             IN                           OUT
                                                      ----------------             ----------------
                               CONSTANT CONCENTRATION:    0.000000                    0.000000    
                                        CONSTANT HEAD:    918.9471                   -510.3421    
                                               STREAM:    0.000000                   -408.6092    
                               MASS STOR (FLOW MODEL):   0.5161509E-02              -0.6986623E-07
                                MASS STORAGE (SOLUTE):    0.000000                    0.000000    
                            ---------------------------------------------------------------------------
                                              [TOTAL]:    918.9523     KG            -918.9513     KG  

                                                          NET (IN - OUT):   0.9765625E-03
                                                   DISCREPANCY (PERCENT):   0.1062692E-03
     2 CALLS TO GCG PACKAGE FOR TRANSPORT TIME STEP   180 IN FLOW TIME STEP     1 STRESS PERIOD     3
      2 TOTAL ITERATIONS
  MAXIMUM CONCENTRATION CHANGES FOR EACH ITERATION:
  MAX. CHANGE LAYER,ROW,COL MAX. CHANGE LAYER,ROW,COL MAX. CHANGE LAYER,ROW,COL MAX. CHANGE LAYER,ROW,COL MAX. CHANGE LAYER,ROW,COL
 ------------------------------------------------------------------------------------------------------------------------------------
    0.000     (  1,  1,  1)   0.000     (  1,  1,  1)


                     STREAM MASS BUDGETS AT END OF TRANSPORT STEP  180, TIME STEP    1, STRESS PERIOD    3 FOR COMPONENT   1
                     -------------------------------------------------------------------------------------------------------

                                         CUMULATIVE MASS [M]                                     MASS FOR THIS TIME STEP [M]
                                         -------------------                                    --------------
                      STREAM DEPLETION =   1923.461                          STREAM DEPLETION =  0.1155094    
                      INFLOW TO STREAM =   4452.748                          INFLOW TO STREAM =   8.325000    
                          GW TO STREAM =   409.6082                              GW TO STREAM =  0.9990391    
                         PRECIPITATION =   0.000000                             PRECIPITATION =   0.000000    
                                RUNOFF =   0.000000                                    RUNOFF =   0.000000    
                CONSTANT CONCENTRATION =   0.000000                    CONSTANT CONCENTRATION =   0.000000    
                             MASS GAIN =   0.000000                                 MASS GAIN =   0.000000    
                                         -------------------                                    --------------
                              TOTAL IN =   6785.817                                  TOTAL IN =   9.439548    

                   STREAM ACCUMULATION =   1924.828                       STREAM ACCUMULATION =  0.3998926E-04
                        STREAM OUTFLOW =   4860.997                            STREAM OUTFLOW =   9.439510    
                          STREAM TO GW =   0.000000                              STREAM TO GW =   0.000000    
                CONSTANT CONCENTRATION =   0.000000                    CONSTANT CONCENTRATION =   0.000000    
                           EVAPORATION =   0.000000                               EVAPORATION =   0.000000    
                             MASS LOSS =   0.000000                                 MASS LOSS =   0.000000    
                                         -------------------                                    --------------
                             TOTAL OUT =   6785.825                                 TOTAL OUT =   9.439550    

                        NET (IN - OUT) = -0.7812500E-02                        NET (IN - OUT) = -0.2861023E-05
                 DISCREPANCY (PERCENT) = -0.1151298E-03                 DISCREPANCY (PERCENT) = -0.3030890E-04
                                              FLOW ERR (QIN-QOUT-DV) = -0.9536743E-06 [L3/T]




 >>>>>>>>>>>>>>>>>>>>>>>>>>>>>>>>>>>>>>>>>>>>>>>>>>>>>>>FOR COMPONENT NO. 01<<<<<<<<<<<<<<<<<<<<<<<<<<<<<<<<<<<<<<<<<<<<<<<<<<<<<<<


                                            -------------------------------------------
                                                      TRANSPORT STEP NO.  180
                                            -------------------------------------------

 TOTAL ELAPSED TIME SINCE BEGINNING OF SIMULATION =   73800.00    D   
 .....................................................................

                     CUMULATIVE MASS BUDGETS AT END OF TRANSPORT STEP  180, TIME STEP    1, STRESS PERIOD    3
                     -----------------------------------------------------------------------------------------

                                                             IN                           OUT
                                                      ----------------             ----------------
                               CONSTANT CONCENTRATION:    0.000000                    0.000000    
                                        CONSTANT HEAD:    921.1939                   -511.5899    
                                               STREAM:    0.000000                   -409.6082    
                               MASS STOR (FLOW MODEL):   0.5161509E-02              -0.6986623E-07
                                MASS STORAGE (SOLUTE):    0.000000                    0.000000    
                            ---------------------------------------------------------------------------
                                              [TOTAL]:    921.1991     KG            -921.1981     KG  

                                                          NET (IN - OUT):   0.9765625E-03
                                                   DISCREPANCY (PERCENT):   0.1060100E-03
     2 CALLS TO GCG PACKAGE FOR TRANSPORT TIME STEP   181 IN FLOW TIME STEP     1 STRESS PERIOD     3
      2 TOTAL ITERATIONS
  MAXIMUM CONCENTRATION CHANGES FOR EACH ITERATION:
  MAX. CHANGE LAYER,ROW,COL MAX. CHANGE LAYER,ROW,COL MAX. CHANGE LAYER,ROW,COL MAX. CHANGE LAYER,ROW,COL MAX. CHANGE LAYER,ROW,COL
 ------------------------------------------------------------------------------------------------------------------------------------
    0.000     (  1,  1,  1)   0.000     (  1,  1,  1)


                     STREAM MASS BUDGETS AT END OF TRANSPORT STEP  181, TIME STEP    1, STRESS PERIOD    3 FOR COMPONENT   1
                     -------------------------------------------------------------------------------------------------------

                                         CUMULATIVE MASS [M]                                     MASS FOR THIS TIME STEP [M]
                                         -------------------                                    --------------
                      STREAM DEPLETION =   1923.568                          STREAM DEPLETION =  0.1067103    
                      INFLOW TO STREAM =   4461.073                          INFLOW TO STREAM =   8.325000    
                          GW TO STREAM =   410.6073                              GW TO STREAM =  0.9990391    
                         PRECIPITATION =   0.000000                             PRECIPITATION =   0.000000    
                                RUNOFF =   0.000000                                    RUNOFF =   0.000000    
                CONSTANT CONCENTRATION =   0.000000                    CONSTANT CONCENTRATION =   0.000000    
                             MASS GAIN =   0.000000                                 MASS GAIN =   0.000000    
                                         -------------------                                    --------------
                              TOTAL IN =   6795.248                                  TOTAL IN =   9.430749    

                   STREAM ACCUMULATION =   1924.828                       STREAM ACCUMULATION =  0.3835564E-04
                        STREAM OUTFLOW =   4870.428                            STREAM OUTFLOW =   9.430713    
                          STREAM TO GW =   0.000000                              STREAM TO GW =   0.000000    
                CONSTANT CONCENTRATION =   0.000000                    CONSTANT CONCENTRATION =   0.000000    
                           EVAPORATION =   0.000000                               EVAPORATION =   0.000000    
                             MASS LOSS =   0.000000                                 MASS LOSS =   0.000000    
                                         -------------------                                    --------------
                             TOTAL OUT =   6795.256                                 TOTAL OUT =   9.430751    

                        NET (IN - OUT) = -0.7812500E-02                        NET (IN - OUT) = -0.1907349E-05
                 DISCREPANCY (PERCENT) = -0.1149700E-03                 DISCREPANCY (PERCENT) = -0.2022478E-04
                                              FLOW ERR (QIN-QOUT-DV) = -0.9536743E-06 [L3/T]




 >>>>>>>>>>>>>>>>>>>>>>>>>>>>>>>>>>>>>>>>>>>>>>>>>>>>>>>FOR COMPONENT NO. 01<<<<<<<<<<<<<<<<<<<<<<<<<<<<<<<<<<<<<<<<<<<<<<<<<<<<<<<


                                            -------------------------------------------
                                                      TRANSPORT STEP NO.  181
                                            -------------------------------------------

 TOTAL ELAPSED TIME SINCE BEGINNING OF SIMULATION =   73980.00    D   
 .....................................................................

                     CUMULATIVE MASS BUDGETS AT END OF TRANSPORT STEP  181, TIME STEP    1, STRESS PERIOD    3
                     -----------------------------------------------------------------------------------------

                                                             IN                           OUT
                                                      ----------------             ----------------
                               CONSTANT CONCENTRATION:    0.000000                    0.000000    
                                        CONSTANT HEAD:    923.4407                   -512.8377    
                                               STREAM:    0.000000                   -410.6073    
                               MASS STOR (FLOW MODEL):   0.5161509E-02              -0.6986623E-07
                                MASS STORAGE (SOLUTE):    0.000000                    0.000000    
                            ---------------------------------------------------------------------------
                                              [TOTAL]:    923.4459     KG            -923.4449     KG  

                                                          NET (IN - OUT):   0.9765625E-03
                                                   DISCREPANCY (PERCENT):   0.1057520E-03
     2 CALLS TO GCG PACKAGE FOR TRANSPORT TIME STEP   182 IN FLOW TIME STEP     1 STRESS PERIOD     3
      2 TOTAL ITERATIONS
  MAXIMUM CONCENTRATION CHANGES FOR EACH ITERATION:
  MAX. CHANGE LAYER,ROW,COL MAX. CHANGE LAYER,ROW,COL MAX. CHANGE LAYER,ROW,COL MAX. CHANGE LAYER,ROW,COL MAX. CHANGE LAYER,ROW,COL
 ------------------------------------------------------------------------------------------------------------------------------------
    0.000     (  1,  1,  1)   0.000     (  1,  1,  1)


                     STREAM MASS BUDGETS AT END OF TRANSPORT STEP  182, TIME STEP    1, STRESS PERIOD    3 FOR COMPONENT   1
                     -------------------------------------------------------------------------------------------------------

                                         CUMULATIVE MASS [M]                                     MASS FOR THIS TIME STEP [M]
                                         -------------------                                    --------------
                      STREAM DEPLETION =   1923.667                          STREAM DEPLETION =  0.9856036E-01
                      INFLOW TO STREAM =   4469.398                          INFLOW TO STREAM =   8.325000    
                          GW TO STREAM =   411.6063                              GW TO STREAM =  0.9990391    
                         PRECIPITATION =   0.000000                             PRECIPITATION =   0.000000    
                                RUNOFF =   0.000000                                    RUNOFF =   0.000000    
                CONSTANT CONCENTRATION =   0.000000                    CONSTANT CONCENTRATION =   0.000000    
                             MASS GAIN =   0.000000                                 MASS GAIN =   0.000000    
                                         -------------------                                    --------------
                              TOTAL IN =   6804.671                                  TOTAL IN =   9.422599    

                   STREAM ACCUMULATION =   1924.828                       STREAM ACCUMULATION =  0.3678827E-04
                        STREAM OUTFLOW =   4879.850                            STREAM OUTFLOW =   9.422565    
                          STREAM TO GW =   0.000000                              STREAM TO GW =   0.000000    
                CONSTANT CONCENTRATION =   0.000000                    CONSTANT CONCENTRATION =   0.000000    
                           EVAPORATION =   0.000000                               EVAPORATION =   0.000000    
                             MASS LOSS =   0.000000                                 MASS LOSS =   0.000000    
                                         -------------------                                    --------------
                             TOTAL OUT =   6804.678                                 TOTAL OUT =   9.422602    

                        NET (IN - OUT) = -0.7324219E-02                        NET (IN - OUT) = -0.2861023E-05
                 DISCREPANCY (PERCENT) = -0.1076351E-03                 DISCREPANCY (PERCENT) = -0.3036341E-04
                                              FLOW ERR (QIN-QOUT-DV) = -0.9536743E-06 [L3/T]




 >>>>>>>>>>>>>>>>>>>>>>>>>>>>>>>>>>>>>>>>>>>>>>>>>>>>>>>FOR COMPONENT NO. 01<<<<<<<<<<<<<<<<<<<<<<<<<<<<<<<<<<<<<<<<<<<<<<<<<<<<<<<


                                            -------------------------------------------
                                                      TRANSPORT STEP NO.  182
                                            -------------------------------------------

 TOTAL ELAPSED TIME SINCE BEGINNING OF SIMULATION =   74160.00    D   
 .....................................................................

                     CUMULATIVE MASS BUDGETS AT END OF TRANSPORT STEP  182, TIME STEP    1, STRESS PERIOD    3
                     -----------------------------------------------------------------------------------------

                                                             IN                           OUT
                                                      ----------------             ----------------
                               CONSTANT CONCENTRATION:    0.000000                    0.000000    
                                        CONSTANT HEAD:    925.6876                   -514.0855    
                                               STREAM:    0.000000                   -411.6063    
                               MASS STOR (FLOW MODEL):   0.5161509E-02              -0.6986623E-07
                                MASS STORAGE (SOLUTE):    0.000000                    0.000000    
                            ---------------------------------------------------------------------------
                                              [TOTAL]:    925.6927     KG            -925.6918     KG  

                                                          NET (IN - OUT):   0.9155273E-03
                                                   DISCREPANCY (PERCENT):   0.9890191E-04
     2 CALLS TO GCG PACKAGE FOR TRANSPORT TIME STEP   183 IN FLOW TIME STEP     1 STRESS PERIOD     3
      2 TOTAL ITERATIONS
  MAXIMUM CONCENTRATION CHANGES FOR EACH ITERATION:
  MAX. CHANGE LAYER,ROW,COL MAX. CHANGE LAYER,ROW,COL MAX. CHANGE LAYER,ROW,COL MAX. CHANGE LAYER,ROW,COL MAX. CHANGE LAYER,ROW,COL
 ------------------------------------------------------------------------------------------------------------------------------------
    0.000     (  1,  1,  1)   0.000     (  1,  1,  1)


                     STREAM MASS BUDGETS AT END OF TRANSPORT STEP  183, TIME STEP    1, STRESS PERIOD    3 FOR COMPONENT   1
                     -------------------------------------------------------------------------------------------------------

                                         CUMULATIVE MASS [M]                                     MASS FOR THIS TIME STEP [M]
                                         -------------------                                    --------------
                      STREAM DEPLETION =   1923.758                          STREAM DEPLETION =  0.9101383E-01
                      INFLOW TO STREAM =   4477.723                          INFLOW TO STREAM =   8.325000    
                          GW TO STREAM =   412.6054                              GW TO STREAM =  0.9990391    
                         PRECIPITATION =   0.000000                             PRECIPITATION =   0.000000    
                                RUNOFF =   0.000000                                    RUNOFF =   0.000000    
                CONSTANT CONCENTRATION =   0.000000                    CONSTANT CONCENTRATION =   0.000000    
                             MASS GAIN =   0.000000                                 MASS GAIN =   0.000000    
                                         -------------------                                    --------------
                              TOTAL IN =   6814.086                                  TOTAL IN =   9.415052    

                   STREAM ACCUMULATION =   1924.828                       STREAM ACCUMULATION =  0.3528444E-04
                        STREAM OUTFLOW =   4889.265                            STREAM OUTFLOW =   9.415019    
                          STREAM TO GW =   0.000000                              STREAM TO GW =   0.000000    
                CONSTANT CONCENTRATION =   0.000000                    CONSTANT CONCENTRATION =   0.000000    
                           EVAPORATION =   0.000000                               EVAPORATION =   0.000000    
                             MASS LOSS =   0.000000                                 MASS LOSS =   0.000000    
                                         -------------------                                    --------------
                             TOTAL OUT =   6814.093                                 TOTAL OUT =   9.415054    

                        NET (IN - OUT) = -0.7324219E-02                        NET (IN - OUT) = -0.1907349E-05
                 DISCREPANCY (PERCENT) = -0.1074864E-03                 DISCREPANCY (PERCENT) = -0.2025850E-04
                                              FLOW ERR (QIN-QOUT-DV) = -0.9536743E-06 [L3/T]




 >>>>>>>>>>>>>>>>>>>>>>>>>>>>>>>>>>>>>>>>>>>>>>>>>>>>>>>FOR COMPONENT NO. 01<<<<<<<<<<<<<<<<<<<<<<<<<<<<<<<<<<<<<<<<<<<<<<<<<<<<<<<


                                            -------------------------------------------
                                                      TRANSPORT STEP NO.  183
                                            -------------------------------------------

 TOTAL ELAPSED TIME SINCE BEGINNING OF SIMULATION =   74340.00    D   
 .....................................................................

                     CUMULATIVE MASS BUDGETS AT END OF TRANSPORT STEP  183, TIME STEP    1, STRESS PERIOD    3
                     -----------------------------------------------------------------------------------------

                                                             IN                           OUT
                                                      ----------------             ----------------
                               CONSTANT CONCENTRATION:    0.000000                    0.000000    
                                        CONSTANT HEAD:    927.9344                   -515.3333    
                                               STREAM:    0.000000                   -412.6054    
                               MASS STOR (FLOW MODEL):   0.5161509E-02              -0.6986623E-07
                                MASS STORAGE (SOLUTE):    0.000000                    0.000000    
                            ---------------------------------------------------------------------------
                                              [TOTAL]:    927.9396     KG            -927.9387     KG  

                                                          NET (IN - OUT):   0.8544922E-03
                                                   DISCREPANCY (PERCENT):   0.9208493E-04
     2 CALLS TO GCG PACKAGE FOR TRANSPORT TIME STEP   184 IN FLOW TIME STEP     1 STRESS PERIOD     3
      2 TOTAL ITERATIONS
  MAXIMUM CONCENTRATION CHANGES FOR EACH ITERATION:
  MAX. CHANGE LAYER,ROW,COL MAX. CHANGE LAYER,ROW,COL MAX. CHANGE LAYER,ROW,COL MAX. CHANGE LAYER,ROW,COL MAX. CHANGE LAYER,ROW,COL
 ------------------------------------------------------------------------------------------------------------------------------------
    0.000     (  1,  1,  1)   0.000     (  1,  1,  1)


                     STREAM MASS BUDGETS AT END OF TRANSPORT STEP  184, TIME STEP    1, STRESS PERIOD    3 FOR COMPONENT   1
                     -------------------------------------------------------------------------------------------------------

                                         CUMULATIVE MASS [M]                                     MASS FOR THIS TIME STEP [M]
                                         -------------------                                    --------------
                      STREAM DEPLETION =   1923.842                          STREAM DEPLETION =  0.8402794E-01
                      INFLOW TO STREAM =   4486.048                          INFLOW TO STREAM =   8.325000    
                          GW TO STREAM =   413.6044                              GW TO STREAM =  0.9990391    
                         PRECIPITATION =   0.000000                             PRECIPITATION =   0.000000    
                                RUNOFF =   0.000000                                    RUNOFF =   0.000000    
                CONSTANT CONCENTRATION =   0.000000                    CONSTANT CONCENTRATION =   0.000000    
                             MASS GAIN =   0.000000                                 MASS GAIN =   0.000000    
                                         -------------------                                    --------------
                              TOTAL IN =   6823.494                                  TOTAL IN =   9.408067    

                   STREAM ACCUMULATION =   1924.828                       STREAM ACCUMULATION =  0.3384163E-04
                        STREAM OUTFLOW =   4898.673                            STREAM OUTFLOW =   9.408035    
                          STREAM TO GW =   0.000000                              STREAM TO GW =   0.000000    
                CONSTANT CONCENTRATION =   0.000000                    CONSTANT CONCENTRATION =   0.000000    
                           EVAPORATION =   0.000000                               EVAPORATION =   0.000000    
                             MASS LOSS =   0.000000                                 MASS LOSS =   0.000000    
                                         -------------------                                    --------------
                             TOTAL OUT =   6823.501                                 TOTAL OUT =   9.408069    

                        NET (IN - OUT) = -0.7324219E-02                        NET (IN - OUT) = -0.1907349E-05
                 DISCREPANCY (PERCENT) = -0.1073382E-03                 DISCREPANCY (PERCENT) = -0.2027354E-04
                                              FLOW ERR (QIN-QOUT-DV) = -0.9536743E-06 [L3/T]




 >>>>>>>>>>>>>>>>>>>>>>>>>>>>>>>>>>>>>>>>>>>>>>>>>>>>>>>FOR COMPONENT NO. 01<<<<<<<<<<<<<<<<<<<<<<<<<<<<<<<<<<<<<<<<<<<<<<<<<<<<<<<


                                            -------------------------------------------
                                                      TRANSPORT STEP NO.  184
                                            -------------------------------------------

 TOTAL ELAPSED TIME SINCE BEGINNING OF SIMULATION =   74520.00    D   
 .....................................................................

                     CUMULATIVE MASS BUDGETS AT END OF TRANSPORT STEP  184, TIME STEP    1, STRESS PERIOD    3
                     -----------------------------------------------------------------------------------------

                                                             IN                           OUT
                                                      ----------------             ----------------
                               CONSTANT CONCENTRATION:    0.000000                    0.000000    
                                        CONSTANT HEAD:    930.1812                   -516.5811    
                                               STREAM:    0.000000                   -413.6044    
                               MASS STOR (FLOW MODEL):   0.5161509E-02              -0.6986623E-07
                                MASS STORAGE (SOLUTE):    0.000000                    0.000000    
                            ---------------------------------------------------------------------------
                                              [TOTAL]:    930.1864     KG            -930.1855     KG  

                                                          NET (IN - OUT):   0.8544922E-03
                                                   DISCREPANCY (PERCENT):   0.9186251E-04
     2 CALLS TO GCG PACKAGE FOR TRANSPORT TIME STEP   185 IN FLOW TIME STEP     1 STRESS PERIOD     3
      2 TOTAL ITERATIONS
  MAXIMUM CONCENTRATION CHANGES FOR EACH ITERATION:
  MAX. CHANGE LAYER,ROW,COL MAX. CHANGE LAYER,ROW,COL MAX. CHANGE LAYER,ROW,COL MAX. CHANGE LAYER,ROW,COL MAX. CHANGE LAYER,ROW,COL
 ------------------------------------------------------------------------------------------------------------------------------------
    0.000     (  1,  1,  1)   0.000     (  1,  1,  1)


                     STREAM MASS BUDGETS AT END OF TRANSPORT STEP  185, TIME STEP    1, STRESS PERIOD    3 FOR COMPONENT   1
                     -------------------------------------------------------------------------------------------------------

                                         CUMULATIVE MASS [M]                                     MASS FOR THIS TIME STEP [M]
                                         -------------------                                    --------------
                      STREAM DEPLETION =   1923.919                          STREAM DEPLETION =  0.7756300E-01
                      INFLOW TO STREAM =   4494.374                          INFLOW TO STREAM =   8.325000    
                          GW TO STREAM =   414.6035                              GW TO STREAM =  0.9990391    
                         PRECIPITATION =   0.000000                             PRECIPITATION =   0.000000    
                                RUNOFF =   0.000000                                    RUNOFF =   0.000000    
                CONSTANT CONCENTRATION =   0.000000                    CONSTANT CONCENTRATION =   0.000000    
                             MASS GAIN =   0.000000                                 MASS GAIN =   0.000000    
                                         -------------------                                    --------------
                              TOTAL IN =   6832.896                                  TOTAL IN =   9.401602    

                   STREAM ACCUMULATION =   1924.828                       STREAM ACCUMULATION =  0.3245738E-04
                        STREAM OUTFLOW =   4908.075                            STREAM OUTFLOW =   9.401571    
                          STREAM TO GW =   0.000000                              STREAM TO GW =   0.000000    
                CONSTANT CONCENTRATION =   0.000000                    CONSTANT CONCENTRATION =   0.000000    
                           EVAPORATION =   0.000000                               EVAPORATION =   0.000000    
                             MASS LOSS =   0.000000                                 MASS LOSS =   0.000000    
                                         -------------------                                    --------------
                             TOTAL OUT =   6832.903                                 TOTAL OUT =   9.401604    

                        NET (IN - OUT) = -0.6835938E-02                        NET (IN - OUT) = -0.1907349E-05
                 DISCREPANCY (PERCENT) = -0.1000445E-03                 DISCREPANCY (PERCENT) = -0.2028748E-04
                                              FLOW ERR (QIN-QOUT-DV) = -0.9536743E-06 [L3/T]




 >>>>>>>>>>>>>>>>>>>>>>>>>>>>>>>>>>>>>>>>>>>>>>>>>>>>>>>FOR COMPONENT NO. 01<<<<<<<<<<<<<<<<<<<<<<<<<<<<<<<<<<<<<<<<<<<<<<<<<<<<<<<


                                            -------------------------------------------
                                                      TRANSPORT STEP NO.  185
                                            -------------------------------------------

 TOTAL ELAPSED TIME SINCE BEGINNING OF SIMULATION =   74700.00    D   
 .....................................................................

                     CUMULATIVE MASS BUDGETS AT END OF TRANSPORT STEP  185, TIME STEP    1, STRESS PERIOD    3
                     -----------------------------------------------------------------------------------------

                                                             IN                           OUT
                                                      ----------------             ----------------
                               CONSTANT CONCENTRATION:    0.000000                    0.000000    
                                        CONSTANT HEAD:    932.4280                   -517.8289    
                                               STREAM:    0.000000                   -414.6035    
                               MASS STOR (FLOW MODEL):   0.5161509E-02              -0.6986623E-07
                                MASS STORAGE (SOLUTE):    0.000000                    0.000000    
                            ---------------------------------------------------------------------------
                                              [TOTAL]:    932.4332     KG            -932.4324     KG  

                                                          NET (IN - OUT):   0.8544922E-03
                                                   DISCREPANCY (PERCENT):   0.9164115E-04
     2 CALLS TO GCG PACKAGE FOR TRANSPORT TIME STEP   186 IN FLOW TIME STEP     1 STRESS PERIOD     3
      2 TOTAL ITERATIONS
  MAXIMUM CONCENTRATION CHANGES FOR EACH ITERATION:
  MAX. CHANGE LAYER,ROW,COL MAX. CHANGE LAYER,ROW,COL MAX. CHANGE LAYER,ROW,COL MAX. CHANGE LAYER,ROW,COL MAX. CHANGE LAYER,ROW,COL
 ------------------------------------------------------------------------------------------------------------------------------------
    0.000     (  1,  1,  1)   0.000     (  1,  1,  1)


                     STREAM MASS BUDGETS AT END OF TRANSPORT STEP  186, TIME STEP    1, STRESS PERIOD    3 FOR COMPONENT   1
                     -------------------------------------------------------------------------------------------------------

                                         CUMULATIVE MASS [M]                                     MASS FOR THIS TIME STEP [M]
                                         -------------------                                    --------------
                      STREAM DEPLETION =   1923.991                          STREAM DEPLETION =  0.7158165E-01
                      INFLOW TO STREAM =   4502.699                          INFLOW TO STREAM =   8.325000    
                          GW TO STREAM =   415.6025                              GW TO STREAM =  0.9990391    
                         PRECIPITATION =   0.000000                             PRECIPITATION =   0.000000    
                                RUNOFF =   0.000000                                    RUNOFF =   0.000000    
                CONSTANT CONCENTRATION =   0.000000                    CONSTANT CONCENTRATION =   0.000000    
                             MASS GAIN =   0.000000                                 MASS GAIN =   0.000000    
                                         -------------------                                    --------------
                              TOTAL IN =   6842.292                                  TOTAL IN =   9.395620    

                   STREAM ACCUMULATION =   1924.828                       STREAM ACCUMULATION =  0.3112933E-04
                        STREAM OUTFLOW =   4917.470                            STREAM OUTFLOW =   9.395592    
                          STREAM TO GW =   0.000000                              STREAM TO GW =   0.000000    
                CONSTANT CONCENTRATION =   0.000000                    CONSTANT CONCENTRATION =   0.000000    
                           EVAPORATION =   0.000000                               EVAPORATION =   0.000000    
                             MASS LOSS =   0.000000                                 MASS LOSS =   0.000000    
                                         -------------------                                    --------------
                             TOTAL OUT =   6842.298                                 TOTAL OUT =   9.395623    

                        NET (IN - OUT) = -0.6347656E-02                        NET (IN - OUT) = -0.2861023E-05
                 DISCREPANCY (PERCENT) = -0.9277087E-04                 DISCREPANCY (PERCENT) = -0.3045060E-04
                                              FLOW ERR (QIN-QOUT-DV) = -0.9536743E-06 [L3/T]




 >>>>>>>>>>>>>>>>>>>>>>>>>>>>>>>>>>>>>>>>>>>>>>>>>>>>>>>FOR COMPONENT NO. 01<<<<<<<<<<<<<<<<<<<<<<<<<<<<<<<<<<<<<<<<<<<<<<<<<<<<<<<


                                            -------------------------------------------
                                                      TRANSPORT STEP NO.  186
                                            -------------------------------------------

 TOTAL ELAPSED TIME SINCE BEGINNING OF SIMULATION =   74880.00    D   
 .....................................................................

                     CUMULATIVE MASS BUDGETS AT END OF TRANSPORT STEP  186, TIME STEP    1, STRESS PERIOD    3
                     -----------------------------------------------------------------------------------------

                                                             IN                           OUT
                                                      ----------------             ----------------
                               CONSTANT CONCENTRATION:    0.000000                    0.000000    
                                        CONSTANT HEAD:    934.6749                   -519.0767    
                                               STREAM:    0.000000                   -415.6025    
                               MASS STOR (FLOW MODEL):   0.5161509E-02              -0.6986623E-07
                                MASS STORAGE (SOLUTE):    0.000000                    0.000000    
                            ---------------------------------------------------------------------------
                                              [TOTAL]:    934.6801     KG            -934.6793     KG  

                                                          NET (IN - OUT):   0.7934570E-03
                                                   DISCREPANCY (PERCENT):   0.8489079E-04
     2 CALLS TO GCG PACKAGE FOR TRANSPORT TIME STEP   187 IN FLOW TIME STEP     1 STRESS PERIOD     3
      2 TOTAL ITERATIONS
  MAXIMUM CONCENTRATION CHANGES FOR EACH ITERATION:
  MAX. CHANGE LAYER,ROW,COL MAX. CHANGE LAYER,ROW,COL MAX. CHANGE LAYER,ROW,COL MAX. CHANGE LAYER,ROW,COL MAX. CHANGE LAYER,ROW,COL
 ------------------------------------------------------------------------------------------------------------------------------------
    0.000     (  1,  1,  1)   0.000     (  1,  1,  1)


                     STREAM MASS BUDGETS AT END OF TRANSPORT STEP  187, TIME STEP    1, STRESS PERIOD    3 FOR COMPONENT   1
                     -------------------------------------------------------------------------------------------------------

                                         CUMULATIVE MASS [M]                                     MASS FOR THIS TIME STEP [M]
                                         -------------------                                    --------------
                      STREAM DEPLETION =   1924.057                          STREAM DEPLETION =  0.6604923E-01
                      INFLOW TO STREAM =   4511.024                          INFLOW TO STREAM =   8.325000    
                          GW TO STREAM =   416.6016                              GW TO STREAM =  0.9990391    
                         PRECIPITATION =   0.000000                             PRECIPITATION =   0.000000    
                                RUNOFF =   0.000000                                    RUNOFF =   0.000000    
                CONSTANT CONCENTRATION =   0.000000                    CONSTANT CONCENTRATION =   0.000000    
                             MASS GAIN =   0.000000                                 MASS GAIN =   0.000000    
                                         -------------------                                    --------------
                              TOTAL IN =   6851.682                                  TOTAL IN =   9.390088    

                   STREAM ACCUMULATION =   1924.828                       STREAM ACCUMULATION =  0.2985524E-04
                        STREAM OUTFLOW =   4926.860                            STREAM OUTFLOW =   9.390060    
                          STREAM TO GW =   0.000000                              STREAM TO GW =   0.000000    
                CONSTANT CONCENTRATION =   0.000000                    CONSTANT CONCENTRATION =   0.000000    
                           EVAPORATION =   0.000000                               EVAPORATION =   0.000000    
                             MASS LOSS =   0.000000                                 MASS LOSS =   0.000000    
                                         -------------------                                    --------------
                             TOTAL OUT =   6851.688                                 TOTAL OUT =   9.390090    

                        NET (IN - OUT) = -0.6347656E-02                        NET (IN - OUT) = -0.1907349E-05
                 DISCREPANCY (PERCENT) = -0.9264372E-04                 DISCREPANCY (PERCENT) = -0.2031236E-04
                                              FLOW ERR (QIN-QOUT-DV) = -0.9536743E-06 [L3/T]




 >>>>>>>>>>>>>>>>>>>>>>>>>>>>>>>>>>>>>>>>>>>>>>>>>>>>>>>FOR COMPONENT NO. 01<<<<<<<<<<<<<<<<<<<<<<<<<<<<<<<<<<<<<<<<<<<<<<<<<<<<<<<


                                            -------------------------------------------
                                                      TRANSPORT STEP NO.  187
                                            -------------------------------------------

 TOTAL ELAPSED TIME SINCE BEGINNING OF SIMULATION =   75060.00    D   
 .....................................................................

                     CUMULATIVE MASS BUDGETS AT END OF TRANSPORT STEP  187, TIME STEP    1, STRESS PERIOD    3
                     -----------------------------------------------------------------------------------------

                                                             IN                           OUT
                                                      ----------------             ----------------
                               CONSTANT CONCENTRATION:    0.000000                    0.000000    
                                        CONSTANT HEAD:    936.9217                   -520.3245    
                                               STREAM:    0.000000                   -416.6016    
                               MASS STOR (FLOW MODEL):   0.5161509E-02              -0.6986623E-07
                                MASS STORAGE (SOLUTE):    0.000000                    0.000000    
                            ---------------------------------------------------------------------------
                                              [TOTAL]:    936.9269     KG            -936.9261     KG  

                                                          NET (IN - OUT):   0.7324219E-03
                                                   DISCREPANCY (PERCENT):   0.7817282E-04
     2 CALLS TO GCG PACKAGE FOR TRANSPORT TIME STEP   188 IN FLOW TIME STEP     1 STRESS PERIOD     3
      2 TOTAL ITERATIONS
  MAXIMUM CONCENTRATION CHANGES FOR EACH ITERATION:
  MAX. CHANGE LAYER,ROW,COL MAX. CHANGE LAYER,ROW,COL MAX. CHANGE LAYER,ROW,COL MAX. CHANGE LAYER,ROW,COL MAX. CHANGE LAYER,ROW,COL
 ------------------------------------------------------------------------------------------------------------------------------------
    0.000     (  1,  1,  1)   0.000     (  1,  1,  1)


                     STREAM MASS BUDGETS AT END OF TRANSPORT STEP  188, TIME STEP    1, STRESS PERIOD    3 FOR COMPONENT   1
                     -------------------------------------------------------------------------------------------------------

                                         CUMULATIVE MASS [M]                                     MASS FOR THIS TIME STEP [M]
                                         -------------------                                    --------------
                      STREAM DEPLETION =   1924.118                          STREAM DEPLETION =  0.6093337E-01
                      INFLOW TO STREAM =   4519.349                          INFLOW TO STREAM =   8.325000    
                          GW TO STREAM =   417.6006                              GW TO STREAM =  0.9990391    
                         PRECIPITATION =   0.000000                             PRECIPITATION =   0.000000    
                                RUNOFF =   0.000000                                    RUNOFF =   0.000000    
                CONSTANT CONCENTRATION =   0.000000                    CONSTANT CONCENTRATION =   0.000000    
                             MASS GAIN =   0.000000                                 MASS GAIN =   0.000000    
                                         -------------------                                    --------------
                              TOTAL IN =   6861.067                                  TOTAL IN =   9.384972    

                   STREAM ACCUMULATION =   1924.828                       STREAM ACCUMULATION =  0.2863439E-04
                        STREAM OUTFLOW =   4936.245                            STREAM OUTFLOW =   9.384946    
                          STREAM TO GW =   0.000000                              STREAM TO GW =   0.000000    
                CONSTANT CONCENTRATION =   0.000000                    CONSTANT CONCENTRATION =   0.000000    
                           EVAPORATION =   0.000000                               EVAPORATION =   0.000000    
                             MASS LOSS =   0.000000                                 MASS LOSS =   0.000000    
                                         -------------------                                    --------------
                             TOTAL OUT =   6861.073                                 TOTAL OUT =   9.384974    

                        NET (IN - OUT) = -0.5859375E-02                        NET (IN - OUT) = -0.2861023E-05
                 DISCREPANCY (PERCENT) = -0.8540031E-04                 DISCREPANCY (PERCENT) = -0.3048515E-04
                                              FLOW ERR (QIN-QOUT-DV) = -0.9536743E-06 [L3/T]




 >>>>>>>>>>>>>>>>>>>>>>>>>>>>>>>>>>>>>>>>>>>>>>>>>>>>>>>FOR COMPONENT NO. 01<<<<<<<<<<<<<<<<<<<<<<<<<<<<<<<<<<<<<<<<<<<<<<<<<<<<<<<


                                            -------------------------------------------
                                                      TRANSPORT STEP NO.  188
                                            -------------------------------------------

 TOTAL ELAPSED TIME SINCE BEGINNING OF SIMULATION =   75240.00    D   
 .....................................................................

                     CUMULATIVE MASS BUDGETS AT END OF TRANSPORT STEP  188, TIME STEP    1, STRESS PERIOD    3
                     -----------------------------------------------------------------------------------------

                                                             IN                           OUT
                                                      ----------------             ----------------
                               CONSTANT CONCENTRATION:    0.000000                    0.000000    
                                        CONSTANT HEAD:    939.1685                   -521.5723    
                                               STREAM:    0.000000                   -417.6006    
                               MASS STOR (FLOW MODEL):   0.5161509E-02              -0.6986623E-07
                                MASS STORAGE (SOLUTE):    0.000000                    0.000000    
                            ---------------------------------------------------------------------------
                                              [TOTAL]:    939.1737     KG            -939.1730     KG  

                                                          NET (IN - OUT):   0.7324219E-03
                                                   DISCREPANCY (PERCENT):   0.7798580E-04
     2 CALLS TO GCG PACKAGE FOR TRANSPORT TIME STEP   189 IN FLOW TIME STEP     1 STRESS PERIOD     3
      2 TOTAL ITERATIONS
  MAXIMUM CONCENTRATION CHANGES FOR EACH ITERATION:
  MAX. CHANGE LAYER,ROW,COL MAX. CHANGE LAYER,ROW,COL MAX. CHANGE LAYER,ROW,COL MAX. CHANGE LAYER,ROW,COL MAX. CHANGE LAYER,ROW,COL
 ------------------------------------------------------------------------------------------------------------------------------------
    0.000     (  1,  1,  1)   0.000     (  1,  1,  1)


                     STREAM MASS BUDGETS AT END OF TRANSPORT STEP  189, TIME STEP    1, STRESS PERIOD    3 FOR COMPONENT   1
                     -------------------------------------------------------------------------------------------------------

                                         CUMULATIVE MASS [M]                                     MASS FOR THIS TIME STEP [M]
                                         -------------------                                    --------------
                      STREAM DEPLETION =   1924.174                          STREAM DEPLETION =  0.5620384E-01
                      INFLOW TO STREAM =   4527.674                          INFLOW TO STREAM =   8.325000    
                          GW TO STREAM =   418.5997                              GW TO STREAM =  0.9990391    
                         PRECIPITATION =   0.000000                             PRECIPITATION =   0.000000    
                                RUNOFF =   0.000000                                    RUNOFF =   0.000000    
                CONSTANT CONCENTRATION =   0.000000                    CONSTANT CONCENTRATION =   0.000000    
                             MASS GAIN =   0.000000                                 MASS GAIN =   0.000000    
                                         -------------------                                    --------------
                              TOTAL IN =   6870.448                                  TOTAL IN =   9.380242    

                   STREAM ACCUMULATION =   1924.828                       STREAM ACCUMULATION =  0.2746336E-04
                        STREAM OUTFLOW =   4945.625                            STREAM OUTFLOW =   9.380218    
                          STREAM TO GW =   0.000000                              STREAM TO GW =   0.000000    
                CONSTANT CONCENTRATION =   0.000000                    CONSTANT CONCENTRATION =   0.000000    
                           EVAPORATION =   0.000000                               EVAPORATION =   0.000000    
                             MASS LOSS =   0.000000                                 MASS LOSS =   0.000000    
                                         -------------------                                    --------------
                             TOTAL OUT =   6870.454                                 TOTAL OUT =   9.380245    

                        NET (IN - OUT) = -0.5859375E-02                        NET (IN - OUT) = -0.2861023E-05
                 DISCREPANCY (PERCENT) = -0.8528370E-04                 DISCREPANCY (PERCENT) = -0.3050052E-04
                                              FLOW ERR (QIN-QOUT-DV) = -0.9536743E-06 [L3/T]




 >>>>>>>>>>>>>>>>>>>>>>>>>>>>>>>>>>>>>>>>>>>>>>>>>>>>>>>FOR COMPONENT NO. 01<<<<<<<<<<<<<<<<<<<<<<<<<<<<<<<<<<<<<<<<<<<<<<<<<<<<<<<


                                            -------------------------------------------
                                                      TRANSPORT STEP NO.  189
                                            -------------------------------------------

 TOTAL ELAPSED TIME SINCE BEGINNING OF SIMULATION =   75420.00    D   
 .....................................................................

                     CUMULATIVE MASS BUDGETS AT END OF TRANSPORT STEP  189, TIME STEP    1, STRESS PERIOD    3
                     -----------------------------------------------------------------------------------------

                                                             IN                           OUT
                                                      ----------------             ----------------
                               CONSTANT CONCENTRATION:    0.000000                    0.000000    
                                        CONSTANT HEAD:    941.4153                   -522.8201    
                                               STREAM:    0.000000                   -418.5997    
                               MASS STOR (FLOW MODEL):   0.5161509E-02              -0.6986623E-07
                                MASS STORAGE (SOLUTE):    0.000000                    0.000000    
                            ---------------------------------------------------------------------------
                                              [TOTAL]:    941.4205     KG            -941.4198     KG  

                                                          NET (IN - OUT):   0.7324219E-03
                                                   DISCREPANCY (PERCENT):   0.7779968E-04
     2 CALLS TO GCG PACKAGE FOR TRANSPORT TIME STEP   190 IN FLOW TIME STEP     1 STRESS PERIOD     3
      2 TOTAL ITERATIONS
  MAXIMUM CONCENTRATION CHANGES FOR EACH ITERATION:
  MAX. CHANGE LAYER,ROW,COL MAX. CHANGE LAYER,ROW,COL MAX. CHANGE LAYER,ROW,COL MAX. CHANGE LAYER,ROW,COL MAX. CHANGE LAYER,ROW,COL
 ------------------------------------------------------------------------------------------------------------------------------------
    0.000     (  1,  1,  1)   0.000     (  1,  1,  1)


                     STREAM MASS BUDGETS AT END OF TRANSPORT STEP  190, TIME STEP    1, STRESS PERIOD    3 FOR COMPONENT   1
                     -------------------------------------------------------------------------------------------------------

                                         CUMULATIVE MASS [M]                                     MASS FOR THIS TIME STEP [M]
                                         -------------------                                    --------------
                      STREAM DEPLETION =   1924.226                          STREAM DEPLETION =  0.5183252E-01
                      INFLOW TO STREAM =   4536.000                          INFLOW TO STREAM =   8.325000    
                          GW TO STREAM =   419.5988                              GW TO STREAM =  0.9990391    
                         PRECIPITATION =   0.000000                             PRECIPITATION =   0.000000    
                                RUNOFF =   0.000000                                    RUNOFF =   0.000000    
                CONSTANT CONCENTRATION =   0.000000                    CONSTANT CONCENTRATION =   0.000000    
                             MASS GAIN =   0.000000                                 MASS GAIN =   0.000000    
                                         -------------------                                    --------------
                              TOTAL IN =   6879.824                                  TOTAL IN =   9.375871    

                   STREAM ACCUMULATION =   1924.828                       STREAM ACCUMULATION =  0.2634016E-04
                        STREAM OUTFLOW =   4955.001                            STREAM OUTFLOW =   9.375847    
                          STREAM TO GW =   0.000000                              STREAM TO GW =   0.000000    
                CONSTANT CONCENTRATION =   0.000000                    CONSTANT CONCENTRATION =   0.000000    
                           EVAPORATION =   0.000000                               EVAPORATION =   0.000000    
                             MASS LOSS =   0.000000                                 MASS LOSS =   0.000000    
                                         -------------------                                    --------------
                             TOTAL OUT =   6879.830                                 TOTAL OUT =   9.375874    

                        NET (IN - OUT) = -0.5859375E-02                        NET (IN - OUT) = -0.2861023E-05
                 DISCREPANCY (PERCENT) = -0.8516748E-04                 DISCREPANCY (PERCENT) = -0.3051474E-04
                                              FLOW ERR (QIN-QOUT-DV) = -0.9536743E-06 [L3/T]




 >>>>>>>>>>>>>>>>>>>>>>>>>>>>>>>>>>>>>>>>>>>>>>>>>>>>>>>FOR COMPONENT NO. 01<<<<<<<<<<<<<<<<<<<<<<<<<<<<<<<<<<<<<<<<<<<<<<<<<<<<<<<


                                            -------------------------------------------
                                                      TRANSPORT STEP NO.  190
                                            -------------------------------------------

 TOTAL ELAPSED TIME SINCE BEGINNING OF SIMULATION =   75600.00    D   
 .....................................................................

                     CUMULATIVE MASS BUDGETS AT END OF TRANSPORT STEP  190, TIME STEP    1, STRESS PERIOD    3
                     -----------------------------------------------------------------------------------------

                                                             IN                           OUT
                                                      ----------------             ----------------
                               CONSTANT CONCENTRATION:    0.000000                    0.000000    
                                        CONSTANT HEAD:    943.6622                   -524.0679    
                                               STREAM:    0.000000                   -419.5988    
                               MASS STOR (FLOW MODEL):   0.5161509E-02              -0.6986623E-07
                                MASS STORAGE (SOLUTE):    0.000000                    0.000000    
                            ---------------------------------------------------------------------------
                                              [TOTAL]:    943.6674     KG            -943.6667     KG  

                                                          NET (IN - OUT):   0.6713867E-03
                                                   DISCREPANCY (PERCENT):   0.7114657E-04
     2 CALLS TO GCG PACKAGE FOR TRANSPORT TIME STEP   191 IN FLOW TIME STEP     1 STRESS PERIOD     3
      2 TOTAL ITERATIONS
  MAXIMUM CONCENTRATION CHANGES FOR EACH ITERATION:
  MAX. CHANGE LAYER,ROW,COL MAX. CHANGE LAYER,ROW,COL MAX. CHANGE LAYER,ROW,COL MAX. CHANGE LAYER,ROW,COL MAX. CHANGE LAYER,ROW,COL
 ------------------------------------------------------------------------------------------------------------------------------------
    0.000     (  1,  1,  1)   0.000     (  1,  1,  1)


                     STREAM MASS BUDGETS AT END OF TRANSPORT STEP  191, TIME STEP    1, STRESS PERIOD    3 FOR COMPONENT   1
                     -------------------------------------------------------------------------------------------------------

                                         CUMULATIVE MASS [M]                                     MASS FOR THIS TIME STEP [M]
                                         -------------------                                    --------------
                      STREAM DEPLETION =   1924.273                          STREAM DEPLETION =  0.4779323E-01
                      INFLOW TO STREAM =   4544.325                          INFLOW TO STREAM =   8.325000    
                          GW TO STREAM =   420.5978                              GW TO STREAM =  0.9990391    
                         PRECIPITATION =   0.000000                             PRECIPITATION =   0.000000    
                                RUNOFF =   0.000000                                    RUNOFF =   0.000000    
                CONSTANT CONCENTRATION =   0.000000                    CONSTANT CONCENTRATION =   0.000000    
                             MASS GAIN =   0.000000                                 MASS GAIN =   0.000000    
                                         -------------------                                    --------------
                              TOTAL IN =   6889.196                                  TOTAL IN =   9.371832    

                   STREAM ACCUMULATION =   1924.828                       STREAM ACCUMULATION =  0.2526257E-04
                        STREAM OUTFLOW =   4964.373                            STREAM OUTFLOW =   9.371809    
                          STREAM TO GW =   0.000000                              STREAM TO GW =   0.000000    
                CONSTANT CONCENTRATION =   0.000000                    CONSTANT CONCENTRATION =   0.000000    
                           EVAPORATION =   0.000000                               EVAPORATION =   0.000000    
                             MASS LOSS =   0.000000                                 MASS LOSS =   0.000000    
                                         -------------------                                    --------------
                             TOTAL OUT =   6889.201                                 TOTAL OUT =   9.371834    

                        NET (IN - OUT) = -0.4882812E-02                        NET (IN - OUT) = -0.1907349E-05
                 DISCREPANCY (PERCENT) = -0.7087635E-04                 DISCREPANCY (PERCENT) = -0.2035193E-04
                                              FLOW ERR (QIN-QOUT-DV) = -0.9536743E-06 [L3/T]




 >>>>>>>>>>>>>>>>>>>>>>>>>>>>>>>>>>>>>>>>>>>>>>>>>>>>>>>FOR COMPONENT NO. 01<<<<<<<<<<<<<<<<<<<<<<<<<<<<<<<<<<<<<<<<<<<<<<<<<<<<<<<


                                            -------------------------------------------
                                                      TRANSPORT STEP NO.  191
                                            -------------------------------------------

 TOTAL ELAPSED TIME SINCE BEGINNING OF SIMULATION =   75780.00    D   
 .....................................................................

                     CUMULATIVE MASS BUDGETS AT END OF TRANSPORT STEP  191, TIME STEP    1, STRESS PERIOD    3
                     -----------------------------------------------------------------------------------------

                                                             IN                           OUT
                                                      ----------------             ----------------
                               CONSTANT CONCENTRATION:    0.000000                    0.000000    
                                        CONSTANT HEAD:    945.9090                   -525.3157    
                                               STREAM:    0.000000                   -420.5978    
                               MASS STOR (FLOW MODEL):   0.5161509E-02              -0.6986623E-07
                                MASS STORAGE (SOLUTE):    0.000000                    0.000000    
                            ---------------------------------------------------------------------------
                                              [TOTAL]:    945.9142     KG            -945.9136     KG  

                                                          NET (IN - OUT):   0.6103516E-03
                                                   DISCREPANCY (PERCENT):   0.6452507E-04
     2 CALLS TO GCG PACKAGE FOR TRANSPORT TIME STEP   192 IN FLOW TIME STEP     1 STRESS PERIOD     3
      2 TOTAL ITERATIONS
  MAXIMUM CONCENTRATION CHANGES FOR EACH ITERATION:
  MAX. CHANGE LAYER,ROW,COL MAX. CHANGE LAYER,ROW,COL MAX. CHANGE LAYER,ROW,COL MAX. CHANGE LAYER,ROW,COL MAX. CHANGE LAYER,ROW,COL
 ------------------------------------------------------------------------------------------------------------------------------------
    0.000     (  1,  1,  1)   0.000     (  1,  1,  1)


                     STREAM MASS BUDGETS AT END OF TRANSPORT STEP  192, TIME STEP    1, STRESS PERIOD    3 FOR COMPONENT   1
                     -------------------------------------------------------------------------------------------------------

                                         CUMULATIVE MASS [M]                                     MASS FOR THIS TIME STEP [M]
                                         -------------------                                    --------------
                      STREAM DEPLETION =   1924.318                          STREAM DEPLETION =  0.4406160E-01
                      INFLOW TO STREAM =   4552.650                          INFLOW TO STREAM =   8.325000    
                          GW TO STREAM =   421.5969                              GW TO STREAM =  0.9990391    
                         PRECIPITATION =   0.000000                             PRECIPITATION =   0.000000    
                                RUNOFF =   0.000000                                    RUNOFF =   0.000000    
                CONSTANT CONCENTRATION =   0.000000                    CONSTANT CONCENTRATION =   0.000000    
                             MASS GAIN =   0.000000                                 MASS GAIN =   0.000000    
                                         -------------------                                    --------------
                              TOTAL IN =   6898.564                                  TOTAL IN =   9.368100    

                   STREAM ACCUMULATION =   1924.828                       STREAM ACCUMULATION =  0.2422874E-04
                        STREAM OUTFLOW =   4973.741                            STREAM OUTFLOW =   9.368078    
                          STREAM TO GW =   0.000000                              STREAM TO GW =   0.000000    
                CONSTANT CONCENTRATION =   0.000000                    CONSTANT CONCENTRATION =   0.000000    
                           EVAPORATION =   0.000000                               EVAPORATION =   0.000000    
                             MASS LOSS =   0.000000                                 MASS LOSS =   0.000000    
                                         -------------------                                    --------------
                             TOTAL OUT =   6898.569                                 TOTAL OUT =   9.368102    

                        NET (IN - OUT) = -0.4882812E-02                        NET (IN - OUT) = -0.1907349E-05
                 DISCREPANCY (PERCENT) = -0.7078010E-04                 DISCREPANCY (PERCENT) = -0.2036003E-04
                                              FLOW ERR (QIN-QOUT-DV) = -0.9536743E-06 [L3/T]




 >>>>>>>>>>>>>>>>>>>>>>>>>>>>>>>>>>>>>>>>>>>>>>>>>>>>>>>FOR COMPONENT NO. 01<<<<<<<<<<<<<<<<<<<<<<<<<<<<<<<<<<<<<<<<<<<<<<<<<<<<<<<


                                            -------------------------------------------
                                                      TRANSPORT STEP NO.  192
                                            -------------------------------------------

 TOTAL ELAPSED TIME SINCE BEGINNING OF SIMULATION =   75960.00    D   
 .....................................................................

                     CUMULATIVE MASS BUDGETS AT END OF TRANSPORT STEP  192, TIME STEP    1, STRESS PERIOD    3
                     -----------------------------------------------------------------------------------------

                                                             IN                           OUT
                                                      ----------------             ----------------
                               CONSTANT CONCENTRATION:    0.000000                    0.000000    
                                        CONSTANT HEAD:    948.1558                   -526.5635    
                                               STREAM:    0.000000                   -421.5969    
                               MASS STOR (FLOW MODEL):   0.5161509E-02              -0.6986623E-07
                                MASS STORAGE (SOLUTE):    0.000000                    0.000000    
                            ---------------------------------------------------------------------------
                                              [TOTAL]:    948.1610     KG            -948.1604     KG  

                                                          NET (IN - OUT):   0.6103516E-03
                                                   DISCREPANCY (PERCENT):   0.6437217E-04
     2 CALLS TO GCG PACKAGE FOR TRANSPORT TIME STEP   193 IN FLOW TIME STEP     1 STRESS PERIOD     3
      2 TOTAL ITERATIONS
  MAXIMUM CONCENTRATION CHANGES FOR EACH ITERATION:
  MAX. CHANGE LAYER,ROW,COL MAX. CHANGE LAYER,ROW,COL MAX. CHANGE LAYER,ROW,COL MAX. CHANGE LAYER,ROW,COL MAX. CHANGE LAYER,ROW,COL
 ------------------------------------------------------------------------------------------------------------------------------------
    0.000     (  1,  1,  1)   0.000     (  1,  1,  1)


                     STREAM MASS BUDGETS AT END OF TRANSPORT STEP  193, TIME STEP    1, STRESS PERIOD    3 FOR COMPONENT   1
                     -------------------------------------------------------------------------------------------------------

                                         CUMULATIVE MASS [M]                                     MASS FOR THIS TIME STEP [M]
                                         -------------------                                    --------------
                      STREAM DEPLETION =   1924.358                          STREAM DEPLETION =  0.4061494E-01
                      INFLOW TO STREAM =   4560.975                          INFLOW TO STREAM =   8.325000    
                          GW TO STREAM =   422.5959                              GW TO STREAM =  0.9990391    
                         PRECIPITATION =   0.000000                             PRECIPITATION =   0.000000    
                                RUNOFF =   0.000000                                    RUNOFF =   0.000000    
                CONSTANT CONCENTRATION =   0.000000                    CONSTANT CONCENTRATION =   0.000000    
                             MASS GAIN =   0.000000                                 MASS GAIN =   0.000000    
                                         -------------------                                    --------------
                              TOTAL IN =   6907.929                                  TOTAL IN =   9.364654    

                   STREAM ACCUMULATION =   1924.828                       STREAM ACCUMULATION =  0.2324131E-04
                        STREAM OUTFLOW =   4983.106                            STREAM OUTFLOW =   9.364633    
                          STREAM TO GW =   0.000000                              STREAM TO GW =   0.000000    
                CONSTANT CONCENTRATION =   0.000000                    CONSTANT CONCENTRATION =   0.000000    
                           EVAPORATION =   0.000000                               EVAPORATION =   0.000000    
                             MASS LOSS =   0.000000                                 MASS LOSS =   0.000000    
                                         -------------------                                    --------------
                             TOTAL OUT =   6907.934                                 TOTAL OUT =   9.364655    

                        NET (IN - OUT) = -0.4882812E-02                        NET (IN - OUT) = -0.1907349E-05
                 DISCREPANCY (PERCENT) = -0.7068415E-04                 DISCREPANCY (PERCENT) = -0.2036753E-04
                                              FLOW ERR (QIN-QOUT-DV) = -0.9536743E-06 [L3/T]




 >>>>>>>>>>>>>>>>>>>>>>>>>>>>>>>>>>>>>>>>>>>>>>>>>>>>>>>FOR COMPONENT NO. 01<<<<<<<<<<<<<<<<<<<<<<<<<<<<<<<<<<<<<<<<<<<<<<<<<<<<<<<


                                            -------------------------------------------
                                                      TRANSPORT STEP NO.  193
                                            -------------------------------------------

 TOTAL ELAPSED TIME SINCE BEGINNING OF SIMULATION =   76140.00    D   
 .....................................................................

                     CUMULATIVE MASS BUDGETS AT END OF TRANSPORT STEP  193, TIME STEP    1, STRESS PERIOD    3
                     -----------------------------------------------------------------------------------------

                                                             IN                           OUT
                                                      ----------------             ----------------
                               CONSTANT CONCENTRATION:    0.000000                    0.000000    
                                        CONSTANT HEAD:    950.4026                   -527.8113    
                                               STREAM:    0.000000                   -422.5959    
                               MASS STOR (FLOW MODEL):   0.5161509E-02              -0.6986623E-07
                                MASS STORAGE (SOLUTE):    0.000000                    0.000000    
                            ---------------------------------------------------------------------------
                                              [TOTAL]:    950.4078     KG            -950.4072     KG  

                                                          NET (IN - OUT):   0.6103516E-03
                                                   DISCREPANCY (PERCENT):   0.6421998E-04
     2 CALLS TO GCG PACKAGE FOR TRANSPORT TIME STEP   194 IN FLOW TIME STEP     1 STRESS PERIOD     3
      2 TOTAL ITERATIONS
  MAXIMUM CONCENTRATION CHANGES FOR EACH ITERATION:
  MAX. CHANGE LAYER,ROW,COL MAX. CHANGE LAYER,ROW,COL MAX. CHANGE LAYER,ROW,COL MAX. CHANGE LAYER,ROW,COL MAX. CHANGE LAYER,ROW,COL
 ------------------------------------------------------------------------------------------------------------------------------------
    0.000     (  1,  1,  1)   0.000     (  1,  1,  1)


                     STREAM MASS BUDGETS AT END OF TRANSPORT STEP  194, TIME STEP    1, STRESS PERIOD    3 FOR COMPONENT   1
                     -------------------------------------------------------------------------------------------------------

                                         CUMULATIVE MASS [M]                                     MASS FOR THIS TIME STEP [M]
                                         -------------------                                    --------------
                      STREAM DEPLETION =   1924.396                          STREAM DEPLETION =  0.3743217E-01
                      INFLOW TO STREAM =   4569.300                          INFLOW TO STREAM =   8.325000    
                          GW TO STREAM =   423.5950                              GW TO STREAM =  0.9990391    
                         PRECIPITATION =   0.000000                             PRECIPITATION =   0.000000    
                                RUNOFF =   0.000000                                    RUNOFF =   0.000000    
                CONSTANT CONCENTRATION =   0.000000                    CONSTANT CONCENTRATION =   0.000000    
                             MASS GAIN =   0.000000                                 MASS GAIN =   0.000000    
                                         -------------------                                    --------------
                              TOTAL IN =   6917.291                                  TOTAL IN =   9.361470    

                   STREAM ACCUMULATION =   1924.828                       STREAM ACCUMULATION =  0.2229436E-04
                        STREAM OUTFLOW =   4992.467                            STREAM OUTFLOW =   9.361451    
                          STREAM TO GW =   0.000000                              STREAM TO GW =   0.000000    
                CONSTANT CONCENTRATION =   0.000000                    CONSTANT CONCENTRATION =   0.000000    
                           EVAPORATION =   0.000000                               EVAPORATION =   0.000000    
                             MASS LOSS =   0.000000                                 MASS LOSS =   0.000000    
                                         -------------------                                    --------------
                             TOTAL OUT =   6917.295                                 TOTAL OUT =   9.361473    

                        NET (IN - OUT) = -0.4394531E-02                        NET (IN - OUT) = -0.2861023E-05
                 DISCREPANCY (PERCENT) = -0.6352964E-04                 DISCREPANCY (PERCENT) = -0.3056168E-04
                                              FLOW ERR (QIN-QOUT-DV) = -0.9536743E-06 [L3/T]




 >>>>>>>>>>>>>>>>>>>>>>>>>>>>>>>>>>>>>>>>>>>>>>>>>>>>>>>FOR COMPONENT NO. 01<<<<<<<<<<<<<<<<<<<<<<<<<<<<<<<<<<<<<<<<<<<<<<<<<<<<<<<


                                            -------------------------------------------
                                                      TRANSPORT STEP NO.  194
                                            -------------------------------------------

 TOTAL ELAPSED TIME SINCE BEGINNING OF SIMULATION =   76320.00    D   
 .....................................................................

                     CUMULATIVE MASS BUDGETS AT END OF TRANSPORT STEP  194, TIME STEP    1, STRESS PERIOD    3
                     -----------------------------------------------------------------------------------------

                                                             IN                           OUT
                                                      ----------------             ----------------
                               CONSTANT CONCENTRATION:    0.000000                    0.000000    
                                        CONSTANT HEAD:    952.6495                   -529.0591    
                                               STREAM:    0.000000                   -423.5950    
                               MASS STOR (FLOW MODEL):   0.5161509E-02              -0.6986623E-07
                                MASS STORAGE (SOLUTE):    0.000000                    0.000000    
                            ---------------------------------------------------------------------------
                                              [TOTAL]:    952.6547     KG            -952.6541     KG  

                                                          NET (IN - OUT):   0.5493164E-03
                                                   DISCREPANCY (PERCENT):   0.5766167E-04
     2 CALLS TO GCG PACKAGE FOR TRANSPORT TIME STEP   195 IN FLOW TIME STEP     1 STRESS PERIOD     3
      2 TOTAL ITERATIONS
  MAXIMUM CONCENTRATION CHANGES FOR EACH ITERATION:
  MAX. CHANGE LAYER,ROW,COL MAX. CHANGE LAYER,ROW,COL MAX. CHANGE LAYER,ROW,COL MAX. CHANGE LAYER,ROW,COL MAX. CHANGE LAYER,ROW,COL
 ------------------------------------------------------------------------------------------------------------------------------------
    0.000     (  1,  1,  1)   0.000     (  1,  1,  1)


                     STREAM MASS BUDGETS AT END OF TRANSPORT STEP  195, TIME STEP    1, STRESS PERIOD    3 FOR COMPONENT   1
                     -------------------------------------------------------------------------------------------------------

                                         CUMULATIVE MASS [M]                                     MASS FOR THIS TIME STEP [M]
                                         -------------------                                    --------------
                      STREAM DEPLETION =   1924.430                          STREAM DEPLETION =  0.3449371E-01
                      INFLOW TO STREAM =   4577.625                          INFLOW TO STREAM =   8.325000    
                          GW TO STREAM =   424.5940                              GW TO STREAM =  0.9990391    
                         PRECIPITATION =   0.000000                             PRECIPITATION =   0.000000    
                                RUNOFF =   0.000000                                    RUNOFF =   0.000000    
                CONSTANT CONCENTRATION =   0.000000                    CONSTANT CONCENTRATION =   0.000000    
                             MASS GAIN =   0.000000                                 MASS GAIN =   0.000000    
                                         -------------------                                    --------------
                              TOTAL IN =   6926.649                                  TOTAL IN =   9.358532    

                   STREAM ACCUMULATION =   1924.828                       STREAM ACCUMULATION =  0.2138577E-04
                        STREAM OUTFLOW =   5001.826                            STREAM OUTFLOW =   9.358513    
                          STREAM TO GW =   0.000000                              STREAM TO GW =   0.000000    
                CONSTANT CONCENTRATION =   0.000000                    CONSTANT CONCENTRATION =   0.000000    
                           EVAPORATION =   0.000000                               EVAPORATION =   0.000000    
                             MASS LOSS =   0.000000                                 MASS LOSS =   0.000000    
                                         -------------------                                    --------------
                             TOTAL OUT =   6926.654                                 TOTAL OUT =   9.358534    

                        NET (IN - OUT) = -0.4394531E-02                        NET (IN - OUT) = -0.1907349E-05
                 DISCREPANCY (PERCENT) = -0.6344380E-04                 DISCREPANCY (PERCENT) = -0.2038085E-04
                                              FLOW ERR (QIN-QOUT-DV) = -0.9536743E-06 [L3/T]




 >>>>>>>>>>>>>>>>>>>>>>>>>>>>>>>>>>>>>>>>>>>>>>>>>>>>>>>FOR COMPONENT NO. 01<<<<<<<<<<<<<<<<<<<<<<<<<<<<<<<<<<<<<<<<<<<<<<<<<<<<<<<


                                            -------------------------------------------
                                                      TRANSPORT STEP NO.  195
                                            -------------------------------------------

 TOTAL ELAPSED TIME SINCE BEGINNING OF SIMULATION =   76500.00    D   
 .....................................................................

                     CUMULATIVE MASS BUDGETS AT END OF TRANSPORT STEP  195, TIME STEP    1, STRESS PERIOD    3
                     -----------------------------------------------------------------------------------------

                                                             IN                           OUT
                                                      ----------------             ----------------
                               CONSTANT CONCENTRATION:    0.000000                    0.000000    
                                        CONSTANT HEAD:    954.8963                   -530.3069    
                                               STREAM:    0.000000                   -424.5940    
                               MASS STOR (FLOW MODEL):   0.5161509E-02              -0.6986623E-07
                                MASS STORAGE (SOLUTE):    0.000000                    0.000000    
                            ---------------------------------------------------------------------------
                                              [TOTAL]:    954.9015     KG            -954.9010     KG  

                                                          NET (IN - OUT):   0.4882812E-03
                                                   DISCREPANCY (PERCENT):   0.5113422E-04
     2 CALLS TO GCG PACKAGE FOR TRANSPORT TIME STEP   196 IN FLOW TIME STEP     1 STRESS PERIOD     3
      2 TOTAL ITERATIONS
  MAXIMUM CONCENTRATION CHANGES FOR EACH ITERATION:
  MAX. CHANGE LAYER,ROW,COL MAX. CHANGE LAYER,ROW,COL MAX. CHANGE LAYER,ROW,COL MAX. CHANGE LAYER,ROW,COL MAX. CHANGE LAYER,ROW,COL
 ------------------------------------------------------------------------------------------------------------------------------------
    0.000     (  1,  1,  1)   0.000     (  1,  1,  1)


                     STREAM MASS BUDGETS AT END OF TRANSPORT STEP  196, TIME STEP    1, STRESS PERIOD    3 FOR COMPONENT   1
                     -------------------------------------------------------------------------------------------------------

                                         CUMULATIVE MASS [M]                                     MASS FOR THIS TIME STEP [M]
                                         -------------------                                    --------------
                      STREAM DEPLETION =   1924.462                          STREAM DEPLETION =  0.3178134E-01
                      INFLOW TO STREAM =   4585.951                          INFLOW TO STREAM =   8.325000    
                          GW TO STREAM =   425.5931                              GW TO STREAM =  0.9990391    
                         PRECIPITATION =   0.000000                             PRECIPITATION =   0.000000    
                                RUNOFF =   0.000000                                    RUNOFF =   0.000000    
                CONSTANT CONCENTRATION =   0.000000                    CONSTANT CONCENTRATION =   0.000000    
                             MASS GAIN =   0.000000                                 MASS GAIN =   0.000000    
                                         -------------------                                    --------------
                              TOTAL IN =   6936.006                                  TOTAL IN =   9.355820    

                   STREAM ACCUMULATION =   1924.828                       STREAM ACCUMULATION =  0.2051395E-04
                        STREAM OUTFLOW =   5011.182                            STREAM OUTFLOW =   9.355802    
                          STREAM TO GW =   0.000000                              STREAM TO GW =   0.000000    
                CONSTANT CONCENTRATION =   0.000000                    CONSTANT CONCENTRATION =   0.000000    
                           EVAPORATION =   0.000000                               EVAPORATION =   0.000000    
                             MASS LOSS =   0.000000                                 MASS LOSS =   0.000000    
                                         -------------------                                    --------------
                             TOTAL OUT =   6936.010                                 TOTAL OUT =   9.355823    

                        NET (IN - OUT) = -0.3906250E-02                        NET (IN - OUT) = -0.2861023E-05
                 DISCREPANCY (PERCENT) = -0.5631842E-04                 DISCREPANCY (PERCENT) = -0.3058014E-04
                                              FLOW ERR (QIN-QOUT-DV) = -0.9536743E-06 [L3/T]




 >>>>>>>>>>>>>>>>>>>>>>>>>>>>>>>>>>>>>>>>>>>>>>>>>>>>>>>FOR COMPONENT NO. 01<<<<<<<<<<<<<<<<<<<<<<<<<<<<<<<<<<<<<<<<<<<<<<<<<<<<<<<


                                            -------------------------------------------
                                                      TRANSPORT STEP NO.  196
                                            -------------------------------------------

 TOTAL ELAPSED TIME SINCE BEGINNING OF SIMULATION =   76680.00    D   
 .....................................................................

                     CUMULATIVE MASS BUDGETS AT END OF TRANSPORT STEP  196, TIME STEP    1, STRESS PERIOD    3
                     -----------------------------------------------------------------------------------------

                                                             IN                           OUT
                                                      ----------------             ----------------
                               CONSTANT CONCENTRATION:    0.000000                    0.000000    
                                        CONSTANT HEAD:    957.1431                   -531.5547    
                                               STREAM:    0.000000                   -425.5931    
                               MASS STOR (FLOW MODEL):   0.5161509E-02              -0.6986623E-07
                                MASS STORAGE (SOLUTE):    0.000000                    0.000000    
                            ---------------------------------------------------------------------------
                                              [TOTAL]:    957.1483     KG            -957.1478     KG  

                                                          NET (IN - OUT):   0.4882812E-03
                                                   DISCREPANCY (PERCENT):   0.5101418E-04
     2 CALLS TO GCG PACKAGE FOR TRANSPORT TIME STEP   197 IN FLOW TIME STEP     1 STRESS PERIOD     3
      2 TOTAL ITERATIONS
  MAXIMUM CONCENTRATION CHANGES FOR EACH ITERATION:
  MAX. CHANGE LAYER,ROW,COL MAX. CHANGE LAYER,ROW,COL MAX. CHANGE LAYER,ROW,COL MAX. CHANGE LAYER,ROW,COL MAX. CHANGE LAYER,ROW,COL
 ------------------------------------------------------------------------------------------------------------------------------------
    0.000     (  1,  1,  1)   0.000     (  1,  1,  1)


                     STREAM MASS BUDGETS AT END OF TRANSPORT STEP  197, TIME STEP    1, STRESS PERIOD    3 FOR COMPONENT   1
                     -------------------------------------------------------------------------------------------------------

                                         CUMULATIVE MASS [M]                                     MASS FOR THIS TIME STEP [M]
                                         -------------------                                    --------------
                      STREAM DEPLETION =   1924.491                          STREAM DEPLETION =  0.2927815E-01
                      INFLOW TO STREAM =   4594.276                          INFLOW TO STREAM =   8.325000    
                          GW TO STREAM =   426.5921                              GW TO STREAM =  0.9990391    
                         PRECIPITATION =   0.000000                             PRECIPITATION =   0.000000    
                                RUNOFF =   0.000000                                    RUNOFF =   0.000000    
                CONSTANT CONCENTRATION =   0.000000                    CONSTANT CONCENTRATION =   0.000000    
                             MASS GAIN =   0.000000                                 MASS GAIN =   0.000000    
                                         -------------------                                    --------------
                              TOTAL IN =   6945.359                                  TOTAL IN =   9.353316    

                   STREAM ACCUMULATION =   1924.828                       STREAM ACCUMULATION =  0.1967743E-04
                        STREAM OUTFLOW =   5020.535                            STREAM OUTFLOW =   9.353299    
                          STREAM TO GW =   0.000000                              STREAM TO GW =   0.000000    
                CONSTANT CONCENTRATION =   0.000000                    CONSTANT CONCENTRATION =   0.000000    
                           EVAPORATION =   0.000000                               EVAPORATION =   0.000000    
                             MASS LOSS =   0.000000                                 MASS LOSS =   0.000000    
                                         -------------------                                    --------------
                             TOTAL OUT =   6945.363                                 TOTAL OUT =   9.353319    

                        NET (IN - OUT) = -0.3906250E-02                        NET (IN - OUT) = -0.2861023E-05
                 DISCREPANCY (PERCENT) = -0.5624257E-04                 DISCREPANCY (PERCENT) = -0.3058832E-04
                                              FLOW ERR (QIN-QOUT-DV) = -0.9536743E-06 [L3/T]




 >>>>>>>>>>>>>>>>>>>>>>>>>>>>>>>>>>>>>>>>>>>>>>>>>>>>>>>FOR COMPONENT NO. 01<<<<<<<<<<<<<<<<<<<<<<<<<<<<<<<<<<<<<<<<<<<<<<<<<<<<<<<


                                            -------------------------------------------
                                                      TRANSPORT STEP NO.  197
                                            -------------------------------------------

 TOTAL ELAPSED TIME SINCE BEGINNING OF SIMULATION =   76860.00    D   
 .....................................................................

                     CUMULATIVE MASS BUDGETS AT END OF TRANSPORT STEP  197, TIME STEP    1, STRESS PERIOD    3
                     -----------------------------------------------------------------------------------------

                                                             IN                           OUT
                                                      ----------------             ----------------
                               CONSTANT CONCENTRATION:    0.000000                    0.000000    
                                        CONSTANT HEAD:    959.3900                   -532.8026    
                                               STREAM:    0.000000                   -426.5921    
                               MASS STOR (FLOW MODEL):   0.5161509E-02              -0.6986623E-07
                                MASS STORAGE (SOLUTE):    0.000000                    0.000000    
                            ---------------------------------------------------------------------------
                                              [TOTAL]:    959.3951     KG            -959.3947     KG  

                                                          NET (IN - OUT):   0.4882812E-03
                                                   DISCREPANCY (PERCENT):   0.5089471E-04
     2 CALLS TO GCG PACKAGE FOR TRANSPORT TIME STEP   198 IN FLOW TIME STEP     1 STRESS PERIOD     3
      2 TOTAL ITERATIONS
  MAXIMUM CONCENTRATION CHANGES FOR EACH ITERATION:
  MAX. CHANGE LAYER,ROW,COL MAX. CHANGE LAYER,ROW,COL MAX. CHANGE LAYER,ROW,COL MAX. CHANGE LAYER,ROW,COL MAX. CHANGE LAYER,ROW,COL
 ------------------------------------------------------------------------------------------------------------------------------------
    0.000     (  1,  1,  1)   0.000     (  1,  1,  1)


                     STREAM MASS BUDGETS AT END OF TRANSPORT STEP  198, TIME STEP    1, STRESS PERIOD    3 FOR COMPONENT   1
                     -------------------------------------------------------------------------------------------------------

                                         CUMULATIVE MASS [M]                                     MASS FOR THIS TIME STEP [M]
                                         -------------------                                    --------------
                      STREAM DEPLETION =   1924.518                          STREAM DEPLETION =  0.2696844E-01
                      INFLOW TO STREAM =   4602.601                          INFLOW TO STREAM =   8.325000    
                          GW TO STREAM =   427.5912                              GW TO STREAM =  0.9990391    
                         PRECIPITATION =   0.000000                             PRECIPITATION =   0.000000    
                                RUNOFF =   0.000000                                    RUNOFF =   0.000000    
                CONSTANT CONCENTRATION =   0.000000                    CONSTANT CONCENTRATION =   0.000000    
                             MASS GAIN =   0.000000                                 MASS GAIN =   0.000000    
                                         -------------------                                    --------------
                              TOTAL IN =   6954.710                                  TOTAL IN =   9.351007    

                   STREAM ACCUMULATION =   1924.828                       STREAM ACCUMULATION =  0.1887476E-04
                        STREAM OUTFLOW =   5029.886                            STREAM OUTFLOW =   9.350990    
                          STREAM TO GW =   0.000000                              STREAM TO GW =   0.000000    
                CONSTANT CONCENTRATION =   0.000000                    CONSTANT CONCENTRATION =   0.000000    
                           EVAPORATION =   0.000000                               EVAPORATION =   0.000000    
                             MASS LOSS =   0.000000                                 MASS LOSS =   0.000000    
                                         -------------------                                    --------------
                             TOTAL OUT =   6954.714                                 TOTAL OUT =   9.351009    

                        NET (IN - OUT) = -0.3906250E-02                        NET (IN - OUT) = -0.2861023E-05
                 DISCREPANCY (PERCENT) = -0.5616695E-04                 DISCREPANCY (PERCENT) = -0.3059588E-04
                                              FLOW ERR (QIN-QOUT-DV) = -0.9536743E-06 [L3/T]




 >>>>>>>>>>>>>>>>>>>>>>>>>>>>>>>>>>>>>>>>>>>>>>>>>>>>>>>FOR COMPONENT NO. 01<<<<<<<<<<<<<<<<<<<<<<<<<<<<<<<<<<<<<<<<<<<<<<<<<<<<<<<


                                            -------------------------------------------
                                                      TRANSPORT STEP NO.  198
                                            -------------------------------------------

 TOTAL ELAPSED TIME SINCE BEGINNING OF SIMULATION =   77040.00    D   
 .....................................................................

                     CUMULATIVE MASS BUDGETS AT END OF TRANSPORT STEP  198, TIME STEP    1, STRESS PERIOD    3
                     -----------------------------------------------------------------------------------------

                                                             IN                           OUT
                                                      ----------------             ----------------
                               CONSTANT CONCENTRATION:    0.000000                    0.000000    
                                        CONSTANT HEAD:    961.6368                   -534.0504    
                                               STREAM:    0.000000                   -427.5912    
                               MASS STOR (FLOW MODEL):   0.5161509E-02              -0.6986623E-07
                                MASS STORAGE (SOLUTE):    0.000000                    0.000000    
                            ---------------------------------------------------------------------------
                                              [TOTAL]:    961.6420     KG            -961.6415     KG  

                                                          NET (IN - OUT):   0.4272461E-03
                                                   DISCREPANCY (PERCENT):   0.4442882E-04
     2 CALLS TO GCG PACKAGE FOR TRANSPORT TIME STEP   199 IN FLOW TIME STEP     1 STRESS PERIOD     3
      2 TOTAL ITERATIONS
  MAXIMUM CONCENTRATION CHANGES FOR EACH ITERATION:
  MAX. CHANGE LAYER,ROW,COL MAX. CHANGE LAYER,ROW,COL MAX. CHANGE LAYER,ROW,COL MAX. CHANGE LAYER,ROW,COL MAX. CHANGE LAYER,ROW,COL
 ------------------------------------------------------------------------------------------------------------------------------------
    0.000     (  1,  1,  1)   0.000     (  1,  1,  1)


                     STREAM MASS BUDGETS AT END OF TRANSPORT STEP  199, TIME STEP    1, STRESS PERIOD    3 FOR COMPONENT   1
                     -------------------------------------------------------------------------------------------------------

                                         CUMULATIVE MASS [M]                                     MASS FOR THIS TIME STEP [M]
                                         -------------------                                    --------------
                      STREAM DEPLETION =   1924.543                          STREAM DEPLETION =  0.2483767E-01
                      INFLOW TO STREAM =   4610.926                          INFLOW TO STREAM =   8.325000    
                          GW TO STREAM =   428.5902                              GW TO STREAM =  0.9990391    
                         PRECIPITATION =   0.000000                             PRECIPITATION =   0.000000    
                                RUNOFF =   0.000000                                    RUNOFF =   0.000000    
                CONSTANT CONCENTRATION =   0.000000                    CONSTANT CONCENTRATION =   0.000000    
                             MASS GAIN =   0.000000                                 MASS GAIN =   0.000000    
                                         -------------------                                    --------------
                              TOTAL IN =   6964.060                                  TOTAL IN =   9.348876    

                   STREAM ACCUMULATION =   1924.828                       STREAM ACCUMULATION =  0.1810461E-04
                        STREAM OUTFLOW =   5039.235                            STREAM OUTFLOW =   9.348861    
                          STREAM TO GW =   0.000000                              STREAM TO GW =   0.000000    
                CONSTANT CONCENTRATION =   0.000000                    CONSTANT CONCENTRATION =   0.000000    
                           EVAPORATION =   0.000000                               EVAPORATION =   0.000000    
                             MASS LOSS =   0.000000                                 MASS LOSS =   0.000000    
                                         -------------------                                    --------------
                             TOTAL OUT =   6964.063                                 TOTAL OUT =   9.348879    

                        NET (IN - OUT) = -0.3417969E-02                        NET (IN - OUT) = -0.2861023E-05
                 DISCREPANCY (PERCENT) = -0.4908011E-04                 DISCREPANCY (PERCENT) = -0.3060285E-04
                                              FLOW ERR (QIN-QOUT-DV) = -0.9536743E-06 [L3/T]




 >>>>>>>>>>>>>>>>>>>>>>>>>>>>>>>>>>>>>>>>>>>>>>>>>>>>>>>FOR COMPONENT NO. 01<<<<<<<<<<<<<<<<<<<<<<<<<<<<<<<<<<<<<<<<<<<<<<<<<<<<<<<


                                            -------------------------------------------
                                                      TRANSPORT STEP NO.  199
                                            -------------------------------------------

 TOTAL ELAPSED TIME SINCE BEGINNING OF SIMULATION =   77220.00    D   
 .....................................................................

                     CUMULATIVE MASS BUDGETS AT END OF TRANSPORT STEP  199, TIME STEP    1, STRESS PERIOD    3
                     -----------------------------------------------------------------------------------------

                                                             IN                           OUT
                                                      ----------------             ----------------
                               CONSTANT CONCENTRATION:    0.000000                    0.000000    
                                        CONSTANT HEAD:    963.8836                   -535.2982    
                                               STREAM:    0.000000                   -428.5902    
                               MASS STOR (FLOW MODEL):   0.5161509E-02              -0.6986623E-07
                                MASS STORAGE (SOLUTE):    0.000000                    0.000000    
                            ---------------------------------------------------------------------------
                                              [TOTAL]:    963.8888     KG            -963.8884     KG  

                                                          NET (IN - OUT):   0.3662109E-03
                                                   DISCREPANCY (PERCENT):   0.3799308E-04
     2 CALLS TO GCG PACKAGE FOR TRANSPORT TIME STEP   200 IN FLOW TIME STEP     1 STRESS PERIOD     3
      2 TOTAL ITERATIONS
  MAXIMUM CONCENTRATION CHANGES FOR EACH ITERATION:
  MAX. CHANGE LAYER,ROW,COL MAX. CHANGE LAYER,ROW,COL MAX. CHANGE LAYER,ROW,COL MAX. CHANGE LAYER,ROW,COL MAX. CHANGE LAYER,ROW,COL
 ------------------------------------------------------------------------------------------------------------------------------------
    0.000     (  1,  1,  1)   0.000     (  1,  1,  1)


                     STREAM MASS BUDGETS AT END OF TRANSPORT STEP  200, TIME STEP    1, STRESS PERIOD    3 FOR COMPONENT   1
                     -------------------------------------------------------------------------------------------------------

                                         CUMULATIVE MASS [M]                                     MASS FOR THIS TIME STEP [M]
                                         -------------------                                    --------------
                      STREAM DEPLETION =   1924.566                          STREAM DEPLETION =  0.2287232E-01
                      INFLOW TO STREAM =   4619.251                          INFLOW TO STREAM =   8.325000    
                          GW TO STREAM =   429.5893                              GW TO STREAM =  0.9990391    
                         PRECIPITATION =   0.000000                             PRECIPITATION =   0.000000    
                                RUNOFF =   0.000000                                    RUNOFF =   0.000000    
                CONSTANT CONCENTRATION =   0.000000                    CONSTANT CONCENTRATION =   0.000000    
                             MASS GAIN =   0.000000                                 MASS GAIN =   0.000000    
                                         -------------------                                    --------------
                              TOTAL IN =   6973.406                                  TOTAL IN =   9.346910    

                   STREAM ACCUMULATION =   1924.828                       STREAM ACCUMULATION =  0.1736566E-04
                        STREAM OUTFLOW =   5048.582                            STREAM OUTFLOW =   9.346896    
                          STREAM TO GW =   0.000000                              STREAM TO GW =   0.000000    
                CONSTANT CONCENTRATION =   0.000000                    CONSTANT CONCENTRATION =   0.000000    
                           EVAPORATION =   0.000000                               EVAPORATION =   0.000000    
                             MASS LOSS =   0.000000                                 MASS LOSS =   0.000000    
                                         -------------------                                    --------------
                             TOTAL OUT =   6973.410                                 TOTAL OUT =   9.346913    

                        NET (IN - OUT) = -0.3417969E-02                        NET (IN - OUT) = -0.2861023E-05
                 DISCREPANCY (PERCENT) = -0.4901432E-04                 DISCREPANCY (PERCENT) = -0.3060928E-04
                                              FLOW ERR (QIN-QOUT-DV) = -0.9536743E-06 [L3/T]




 >>>>>>>>>>>>>>>>>>>>>>>>>>>>>>>>>>>>>>>>>>>>>>>>>>>>>>>FOR COMPONENT NO. 01<<<<<<<<<<<<<<<<<<<<<<<<<<<<<<<<<<<<<<<<<<<<<<<<<<<<<<<


                                            -------------------------------------------
                                                      TRANSPORT STEP NO.  200
                                            -------------------------------------------

 TOTAL ELAPSED TIME SINCE BEGINNING OF SIMULATION =   77400.00    D   
 .....................................................................

                     CUMULATIVE MASS BUDGETS AT END OF TRANSPORT STEP  200, TIME STEP    1, STRESS PERIOD    3
                     -----------------------------------------------------------------------------------------

                                                             IN                           OUT
                                                      ----------------             ----------------
                               CONSTANT CONCENTRATION:    0.000000                    0.000000    
                                        CONSTANT HEAD:    966.1304                   -536.5460    
                                               STREAM:    0.000000                   -429.5893    
                               MASS STOR (FLOW MODEL):   0.5161509E-02              -0.6986623E-07
                                MASS STORAGE (SOLUTE):    0.000000                    0.000000    
                            ---------------------------------------------------------------------------
                                              [TOTAL]:    966.1356     KG            -966.1353     KG  

                                                          NET (IN - OUT):   0.3662109E-03
                                                   DISCREPANCY (PERCENT):   0.3790472E-04
     2 CALLS TO GCG PACKAGE FOR TRANSPORT TIME STEP   201 IN FLOW TIME STEP     1 STRESS PERIOD     3
      2 TOTAL ITERATIONS
  MAXIMUM CONCENTRATION CHANGES FOR EACH ITERATION:
  MAX. CHANGE LAYER,ROW,COL MAX. CHANGE LAYER,ROW,COL MAX. CHANGE LAYER,ROW,COL MAX. CHANGE LAYER,ROW,COL MAX. CHANGE LAYER,ROW,COL
 ------------------------------------------------------------------------------------------------------------------------------------
    0.000     (  1,  1,  1)   0.000     (  1,  1,  1)


                     STREAM MASS BUDGETS AT END OF TRANSPORT STEP  201, TIME STEP    1, STRESS PERIOD    3 FOR COMPONENT   1
                     -------------------------------------------------------------------------------------------------------

                                         CUMULATIVE MASS [M]                                     MASS FOR THIS TIME STEP [M]
                                         -------------------                                    --------------
                      STREAM DEPLETION =   1924.587                          STREAM DEPLETION =  0.2105986E-01
                      INFLOW TO STREAM =   4627.577                          INFLOW TO STREAM =   8.325000    
                          GW TO STREAM =   430.5883                              GW TO STREAM =  0.9990391    
                         PRECIPITATION =   0.000000                             PRECIPITATION =   0.000000    
                                RUNOFF =   0.000000                                    RUNOFF =   0.000000    
                CONSTANT CONCENTRATION =   0.000000                    CONSTANT CONCENTRATION =   0.000000    
                             MASS GAIN =   0.000000                                 MASS GAIN =   0.000000    
                                         -------------------                                    --------------
                              TOTAL IN =   6982.752                                  TOTAL IN =   9.345098    

                   STREAM ACCUMULATION =   1924.828                       STREAM ACCUMULATION =  0.1665667E-04
                        STREAM OUTFLOW =   5057.927                            STREAM OUTFLOW =   9.345084    
                          STREAM TO GW =   0.000000                              STREAM TO GW =   0.000000    
                CONSTANT CONCENTRATION =   0.000000                    CONSTANT CONCENTRATION =   0.000000    
                           EVAPORATION =   0.000000                               EVAPORATION =   0.000000    
                             MASS LOSS =   0.000000                                 MASS LOSS =   0.000000    
                                         -------------------                                    --------------
                             TOTAL OUT =   6982.755                                 TOTAL OUT =   9.345100    

                        NET (IN - OUT) = -0.2929688E-02                        NET (IN - OUT) = -0.1907349E-05
                 DISCREPANCY (PERCENT) = -0.4195605E-04                 DISCREPANCY (PERCENT) = -0.2041015E-04
                                              FLOW ERR (QIN-QOUT-DV) = -0.9536743E-06 [L3/T]




 >>>>>>>>>>>>>>>>>>>>>>>>>>>>>>>>>>>>>>>>>>>>>>>>>>>>>>>FOR COMPONENT NO. 01<<<<<<<<<<<<<<<<<<<<<<<<<<<<<<<<<<<<<<<<<<<<<<<<<<<<<<<


                                            -------------------------------------------
                                                      TRANSPORT STEP NO.  201
                                            -------------------------------------------

 TOTAL ELAPSED TIME SINCE BEGINNING OF SIMULATION =   77580.00    D   
 .....................................................................

                     CUMULATIVE MASS BUDGETS AT END OF TRANSPORT STEP  201, TIME STEP    1, STRESS PERIOD    3
                     -----------------------------------------------------------------------------------------

                                                             IN                           OUT
                                                      ----------------             ----------------
                               CONSTANT CONCENTRATION:    0.000000                    0.000000    
                                        CONSTANT HEAD:    968.3773                   -537.7938    
                                               STREAM:    0.000000                   -430.5883    
                               MASS STOR (FLOW MODEL):   0.5161509E-02              -0.6986623E-07
                                MASS STORAGE (SOLUTE):    0.000000                    0.000000    
                            ---------------------------------------------------------------------------
                                              [TOTAL]:    968.3824     KG            -968.3821     KG  

                                                          NET (IN - OUT):   0.3662109E-03
                                                   DISCREPANCY (PERCENT):   0.3781678E-04
     2 CALLS TO GCG PACKAGE FOR TRANSPORT TIME STEP   202 IN FLOW TIME STEP     1 STRESS PERIOD     3
      2 TOTAL ITERATIONS
  MAXIMUM CONCENTRATION CHANGES FOR EACH ITERATION:
  MAX. CHANGE LAYER,ROW,COL MAX. CHANGE LAYER,ROW,COL MAX. CHANGE LAYER,ROW,COL MAX. CHANGE LAYER,ROW,COL MAX. CHANGE LAYER,ROW,COL
 ------------------------------------------------------------------------------------------------------------------------------------
    0.000     (  1,  1,  1)   0.000     (  1,  1,  1)


                     STREAM MASS BUDGETS AT END OF TRANSPORT STEP  202, TIME STEP    1, STRESS PERIOD    3 FOR COMPONENT   1
                     -------------------------------------------------------------------------------------------------------

                                         CUMULATIVE MASS [M]                                     MASS FOR THIS TIME STEP [M]
                                         -------------------                                    --------------
                      STREAM DEPLETION =   1924.606                          STREAM DEPLETION =  0.1938866E-01
                      INFLOW TO STREAM =   4635.902                          INFLOW TO STREAM =   8.325000    
                          GW TO STREAM =   431.5874                              GW TO STREAM =  0.9990391    
                         PRECIPITATION =   0.000000                             PRECIPITATION =   0.000000    
                                RUNOFF =   0.000000                                    RUNOFF =   0.000000    
                CONSTANT CONCENTRATION =   0.000000                    CONSTANT CONCENTRATION =   0.000000    
                             MASS GAIN =   0.000000                                 MASS GAIN =   0.000000    
                                         -------------------                                    --------------
                              TOTAL IN =   6992.096                                  TOTAL IN =   9.343427    

                   STREAM ACCUMULATION =   1924.828                       STREAM ACCUMULATION =  0.1597643E-04
                        STREAM OUTFLOW =   5067.270                            STREAM OUTFLOW =   9.343413    
                          STREAM TO GW =   0.000000                              STREAM TO GW =   0.000000    
                CONSTANT CONCENTRATION =   0.000000                    CONSTANT CONCENTRATION =   0.000000    
                           EVAPORATION =   0.000000                               EVAPORATION =   0.000000    
                             MASS LOSS =   0.000000                                 MASS LOSS =   0.000000    
                                         -------------------                                    --------------
                             TOTAL OUT =   6992.098                                 TOTAL OUT =   9.343430    

                        NET (IN - OUT) = -0.2441406E-02                        NET (IN - OUT) = -0.2861023E-05
                 DISCREPANCY (PERCENT) = -0.3491665E-04                 DISCREPANCY (PERCENT) = -0.3062070E-04
                                              FLOW ERR (QIN-QOUT-DV) = -0.9536743E-06 [L3/T]




 >>>>>>>>>>>>>>>>>>>>>>>>>>>>>>>>>>>>>>>>>>>>>>>>>>>>>>>FOR COMPONENT NO. 01<<<<<<<<<<<<<<<<<<<<<<<<<<<<<<<<<<<<<<<<<<<<<<<<<<<<<<<


                                            -------------------------------------------
                                                      TRANSPORT STEP NO.  202
                                            -------------------------------------------

 TOTAL ELAPSED TIME SINCE BEGINNING OF SIMULATION =   77760.00    D   
 .....................................................................

                     CUMULATIVE MASS BUDGETS AT END OF TRANSPORT STEP  202, TIME STEP    1, STRESS PERIOD    3
                     -----------------------------------------------------------------------------------------

                                                             IN                           OUT
                                                      ----------------             ----------------
                               CONSTANT CONCENTRATION:    0.000000                    0.000000    
                                        CONSTANT HEAD:    970.6241                   -539.0416    
                                               STREAM:    0.000000                   -431.5874    
                               MASS STOR (FLOW MODEL):   0.5161509E-02              -0.6986623E-07
                                MASS STORAGE (SOLUTE):    0.000000                    0.000000    
                            ---------------------------------------------------------------------------
                                              [TOTAL]:    970.6293     KG            -970.6290     KG  

                                                          NET (IN - OUT):   0.3051758E-03
                                                   DISCREPANCY (PERCENT):   0.3144103E-04
     2 CALLS TO GCG PACKAGE FOR TRANSPORT TIME STEP   203 IN FLOW TIME STEP     1 STRESS PERIOD     3
      2 TOTAL ITERATIONS
  MAXIMUM CONCENTRATION CHANGES FOR EACH ITERATION:
  MAX. CHANGE LAYER,ROW,COL MAX. CHANGE LAYER,ROW,COL MAX. CHANGE LAYER,ROW,COL MAX. CHANGE LAYER,ROW,COL MAX. CHANGE LAYER,ROW,COL
 ------------------------------------------------------------------------------------------------------------------------------------
    0.000     (  1,  1,  1)   0.000     (  1,  1,  1)


                     STREAM MASS BUDGETS AT END OF TRANSPORT STEP  203, TIME STEP    1, STRESS PERIOD    3 FOR COMPONENT   1
                     -------------------------------------------------------------------------------------------------------

                                         CUMULATIVE MASS [M]                                     MASS FOR THIS TIME STEP [M]
                                         -------------------                                    --------------
                      STREAM DEPLETION =   1924.624                          STREAM DEPLETION =  0.1784799E-01
                      INFLOW TO STREAM =   4644.227                          INFLOW TO STREAM =   8.325000    
                          GW TO STREAM =   432.5865                              GW TO STREAM =  0.9990391    
                         PRECIPITATION =   0.000000                             PRECIPITATION =   0.000000    
                                RUNOFF =   0.000000                                    RUNOFF =   0.000000    
                CONSTANT CONCENTRATION =   0.000000                    CONSTANT CONCENTRATION =   0.000000    
                             MASS GAIN =   0.000000                                 MASS GAIN =   0.000000    
                                         -------------------                                    --------------
                              TOTAL IN =   7001.438                                  TOTAL IN =   9.341887    

                   STREAM ACCUMULATION =   1924.828                       STREAM ACCUMULATION =  0.1532377E-04
                        STREAM OUTFLOW =   5076.612                            STREAM OUTFLOW =   9.341873    
                          STREAM TO GW =   0.000000                              STREAM TO GW =   0.000000    
                CONSTANT CONCENTRATION =   0.000000                    CONSTANT CONCENTRATION =   0.000000    
                           EVAPORATION =   0.000000                               EVAPORATION =   0.000000    
                             MASS LOSS =   0.000000                                 MASS LOSS =   0.000000    
                                         -------------------                                    --------------
                             TOTAL OUT =   7001.440                                 TOTAL OUT =   9.341888    

                        NET (IN - OUT) = -0.2441406E-02                        NET (IN - OUT) = -0.1907349E-05
                 DISCREPANCY (PERCENT) = -0.3487007E-04                 DISCREPANCY (PERCENT) = -0.2041716E-04
                                              FLOW ERR (QIN-QOUT-DV) = -0.9536743E-06 [L3/T]




 >>>>>>>>>>>>>>>>>>>>>>>>>>>>>>>>>>>>>>>>>>>>>>>>>>>>>>>FOR COMPONENT NO. 01<<<<<<<<<<<<<<<<<<<<<<<<<<<<<<<<<<<<<<<<<<<<<<<<<<<<<<<


                                            -------------------------------------------
                                                      TRANSPORT STEP NO.  203
                                            -------------------------------------------

 TOTAL ELAPSED TIME SINCE BEGINNING OF SIMULATION =   77940.00    D   
 .....................................................................

                     CUMULATIVE MASS BUDGETS AT END OF TRANSPORT STEP  203, TIME STEP    1, STRESS PERIOD    3
                     -----------------------------------------------------------------------------------------

                                                             IN                           OUT
                                                      ----------------             ----------------
                               CONSTANT CONCENTRATION:    0.000000                    0.000000    
                                        CONSTANT HEAD:    972.8709                   -540.2894    
                                               STREAM:    0.000000                   -432.5865    
                               MASS STOR (FLOW MODEL):   0.5161509E-02              -0.6986623E-07
                                MASS STORAGE (SOLUTE):    0.000000                    0.000000    
                            ---------------------------------------------------------------------------
                                              [TOTAL]:    972.8761     KG            -972.8759     KG  

                                                          NET (IN - OUT):   0.2441406E-03
                                                   DISCREPANCY (PERCENT):   0.2509473E-04
     2 CALLS TO GCG PACKAGE FOR TRANSPORT TIME STEP   204 IN FLOW TIME STEP     1 STRESS PERIOD     3
      2 TOTAL ITERATIONS
  MAXIMUM CONCENTRATION CHANGES FOR EACH ITERATION:
  MAX. CHANGE LAYER,ROW,COL MAX. CHANGE LAYER,ROW,COL MAX. CHANGE LAYER,ROW,COL MAX. CHANGE LAYER,ROW,COL MAX. CHANGE LAYER,ROW,COL
 ------------------------------------------------------------------------------------------------------------------------------------
    0.000     (  1,  1,  1)   0.000     (  1,  1,  1)


                     STREAM MASS BUDGETS AT END OF TRANSPORT STEP  204, TIME STEP    1, STRESS PERIOD    3 FOR COMPONENT   1
                     -------------------------------------------------------------------------------------------------------

                                         CUMULATIVE MASS [M]                                     MASS FOR THIS TIME STEP [M]
                                         -------------------                                    --------------
                      STREAM DEPLETION =   1924.641                          STREAM DEPLETION =  0.1642787E-01
                      INFLOW TO STREAM =   4652.552                          INFLOW TO STREAM =   8.325000    
                          GW TO STREAM =   433.5855                              GW TO STREAM =  0.9990391    
                         PRECIPITATION =   0.000000                             PRECIPITATION =   0.000000    
                                RUNOFF =   0.000000                                    RUNOFF =   0.000000    
                CONSTANT CONCENTRATION =   0.000000                    CONSTANT CONCENTRATION =   0.000000    
                             MASS GAIN =   0.000000                                 MASS GAIN =   0.000000    
                                         -------------------                                    --------------
                              TOTAL IN =   7010.778                                  TOTAL IN =   9.340466    

                   STREAM ACCUMULATION =   1924.828                       STREAM ACCUMULATION =  0.1469759E-04
                        STREAM OUTFLOW =   5085.952                            STREAM OUTFLOW =   9.340454    
                          STREAM TO GW =   0.000000                              STREAM TO GW =   0.000000    
                CONSTANT CONCENTRATION =   0.000000                    CONSTANT CONCENTRATION =   0.000000    
                           EVAPORATION =   0.000000                               EVAPORATION =   0.000000    
                             MASS LOSS =   0.000000                                 MASS LOSS =   0.000000    
                                         -------------------                                    --------------
                             TOTAL OUT =   7010.780                                 TOTAL OUT =   9.340468    

                        NET (IN - OUT) = -0.1953125E-02                        NET (IN - OUT) = -0.1907349E-05
                 DISCREPANCY (PERCENT) = -0.2785889E-04                 DISCREPANCY (PERCENT) = -0.2042027E-04
                                              FLOW ERR (QIN-QOUT-DV) = -0.9536743E-06 [L3/T]




 >>>>>>>>>>>>>>>>>>>>>>>>>>>>>>>>>>>>>>>>>>>>>>>>>>>>>>>FOR COMPONENT NO. 01<<<<<<<<<<<<<<<<<<<<<<<<<<<<<<<<<<<<<<<<<<<<<<<<<<<<<<<


                                            -------------------------------------------
                                                      TRANSPORT STEP NO.  204
                                            -------------------------------------------

 TOTAL ELAPSED TIME SINCE BEGINNING OF SIMULATION =   78120.00    D   
 .....................................................................

                     CUMULATIVE MASS BUDGETS AT END OF TRANSPORT STEP  204, TIME STEP    1, STRESS PERIOD    3
                     -----------------------------------------------------------------------------------------

                                                             IN                           OUT
                                                      ----------------             ----------------
                               CONSTANT CONCENTRATION:    0.000000                    0.000000    
                                        CONSTANT HEAD:    975.1177                   -541.5372    
                                               STREAM:    0.000000                   -433.5855    
                               MASS STOR (FLOW MODEL):   0.5161509E-02              -0.6986623E-07
                                MASS STORAGE (SOLUTE):    0.000000                    0.000000    
                            ---------------------------------------------------------------------------
                                              [TOTAL]:    975.1229     KG            -975.1227     KG  

                                                          NET (IN - OUT):   0.2441406E-03
                                                   DISCREPANCY (PERCENT):   0.2503691E-04
     2 CALLS TO GCG PACKAGE FOR TRANSPORT TIME STEP   205 IN FLOW TIME STEP     1 STRESS PERIOD     3
      2 TOTAL ITERATIONS
  MAXIMUM CONCENTRATION CHANGES FOR EACH ITERATION:
  MAX. CHANGE LAYER,ROW,COL MAX. CHANGE LAYER,ROW,COL MAX. CHANGE LAYER,ROW,COL MAX. CHANGE LAYER,ROW,COL MAX. CHANGE LAYER,ROW,COL
 ------------------------------------------------------------------------------------------------------------------------------------
    0.000     (  1,  1,  1)   0.000     (  1,  1,  1)


                     STREAM MASS BUDGETS AT END OF TRANSPORT STEP  205, TIME STEP    1, STRESS PERIOD    3 FOR COMPONENT   1
                     -------------------------------------------------------------------------------------------------------

                                         CUMULATIVE MASS [M]                                     MASS FOR THIS TIME STEP [M]
                                         -------------------                                    --------------
                      STREAM DEPLETION =   1924.656                          STREAM DEPLETION =  0.1511907E-01
                      INFLOW TO STREAM =   4660.877                          INFLOW TO STREAM =   8.325000    
                          GW TO STREAM =   434.5846                              GW TO STREAM =  0.9990391    
                         PRECIPITATION =   0.000000                             PRECIPITATION =   0.000000    
                                RUNOFF =   0.000000                                    RUNOFF =   0.000000    
                CONSTANT CONCENTRATION =   0.000000                    CONSTANT CONCENTRATION =   0.000000    
                             MASS GAIN =   0.000000                                 MASS GAIN =   0.000000    
                                         -------------------                                    --------------
                              TOTAL IN =   7020.118                                  TOTAL IN =   9.339157    

                   STREAM ACCUMULATION =   1924.828                       STREAM ACCUMULATION =  0.1409682E-04
                        STREAM OUTFLOW =   5095.292                            STREAM OUTFLOW =   9.339146    
                          STREAM TO GW =   0.000000                              STREAM TO GW =   0.000000    
                CONSTANT CONCENTRATION =   0.000000                    CONSTANT CONCENTRATION =   0.000000    
                           EVAPORATION =   0.000000                               EVAPORATION =   0.000000    
                             MASS LOSS =   0.000000                                 MASS LOSS =   0.000000    
                                         -------------------                                    --------------
                             TOTAL OUT =   7020.120                                 TOTAL OUT =   9.339160    

                        NET (IN - OUT) = -0.1953125E-02                        NET (IN - OUT) = -0.2861023E-05
                 DISCREPANCY (PERCENT) = -0.2782182E-04                 DISCREPANCY (PERCENT) = -0.3063470E-04
                                              FLOW ERR (QIN-QOUT-DV) = -0.9536743E-06 [L3/T]




 >>>>>>>>>>>>>>>>>>>>>>>>>>>>>>>>>>>>>>>>>>>>>>>>>>>>>>>FOR COMPONENT NO. 01<<<<<<<<<<<<<<<<<<<<<<<<<<<<<<<<<<<<<<<<<<<<<<<<<<<<<<<


                                            -------------------------------------------
                                                      TRANSPORT STEP NO.  205
                                            -------------------------------------------

 TOTAL ELAPSED TIME SINCE BEGINNING OF SIMULATION =   78300.00    D   
 .....................................................................

                     CUMULATIVE MASS BUDGETS AT END OF TRANSPORT STEP  205, TIME STEP    1, STRESS PERIOD    3
                     -----------------------------------------------------------------------------------------

                                                             IN                           OUT
                                                      ----------------             ----------------
                               CONSTANT CONCENTRATION:    0.000000                    0.000000    
                                        CONSTANT HEAD:    977.3646                   -542.7850    
                                               STREAM:    0.000000                   -434.5846    
                               MASS STOR (FLOW MODEL):   0.5161509E-02              -0.6986623E-07
                                MASS STORAGE (SOLUTE):    0.000000                    0.000000    
                            ---------------------------------------------------------------------------
                                              [TOTAL]:    977.3698     KG            -977.3695     KG  

                                                          NET (IN - OUT):   0.2441406E-03
                                                   DISCREPANCY (PERCENT):   0.2497935E-04
     2 CALLS TO GCG PACKAGE FOR TRANSPORT TIME STEP   206 IN FLOW TIME STEP     1 STRESS PERIOD     3
      2 TOTAL ITERATIONS
  MAXIMUM CONCENTRATION CHANGES FOR EACH ITERATION:
  MAX. CHANGE LAYER,ROW,COL MAX. CHANGE LAYER,ROW,COL MAX. CHANGE LAYER,ROW,COL MAX. CHANGE LAYER,ROW,COL MAX. CHANGE LAYER,ROW,COL
 ------------------------------------------------------------------------------------------------------------------------------------
    0.000     (  1,  1,  1)   0.000     (  1,  1,  1)


                     STREAM MASS BUDGETS AT END OF TRANSPORT STEP  206, TIME STEP    1, STRESS PERIOD    3 FOR COMPONENT   1
                     -------------------------------------------------------------------------------------------------------

                                         CUMULATIVE MASS [M]                                     MASS FOR THIS TIME STEP [M]
                                         -------------------                                    --------------
                      STREAM DEPLETION =   1924.670                          STREAM DEPLETION =  0.1391304E-01
                      INFLOW TO STREAM =   4669.203                          INFLOW TO STREAM =   8.325000    
                          GW TO STREAM =   435.5836                              GW TO STREAM =  0.9990391    
                         PRECIPITATION =   0.000000                             PRECIPITATION =   0.000000    
                                RUNOFF =   0.000000                                    RUNOFF =   0.000000    
                CONSTANT CONCENTRATION =   0.000000                    CONSTANT CONCENTRATION =   0.000000    
                             MASS GAIN =   0.000000                                 MASS GAIN =   0.000000    
                                         -------------------                                    --------------
                              TOTAL IN =   7029.456                                  TOTAL IN =   9.337952    

                   STREAM ACCUMULATION =   1924.828                       STREAM ACCUMULATION =  0.1352044E-04
                        STREAM OUTFLOW =   5104.629                            STREAM OUTFLOW =   9.337940    
                          STREAM TO GW =   0.000000                              STREAM TO GW =   0.000000    
                CONSTANT CONCENTRATION =   0.000000                    CONSTANT CONCENTRATION =   0.000000    
                           EVAPORATION =   0.000000                               EVAPORATION =   0.000000    
                             MASS LOSS =   0.000000                                 MASS LOSS =   0.000000    
                                         -------------------                                    --------------
                             TOTAL OUT =   7029.458                                 TOTAL OUT =   9.337954    

                        NET (IN - OUT) = -0.1464844E-02                        NET (IN - OUT) = -0.1907349E-05
                 DISCREPANCY (PERCENT) = -0.2083865E-04                 DISCREPANCY (PERCENT) = -0.2042577E-04
                                              FLOW ERR (QIN-QOUT-DV) = -0.9536743E-06 [L3/T]




 >>>>>>>>>>>>>>>>>>>>>>>>>>>>>>>>>>>>>>>>>>>>>>>>>>>>>>>FOR COMPONENT NO. 01<<<<<<<<<<<<<<<<<<<<<<<<<<<<<<<<<<<<<<<<<<<<<<<<<<<<<<<


                                            -------------------------------------------
                                                      TRANSPORT STEP NO.  206
                                            -------------------------------------------

 TOTAL ELAPSED TIME SINCE BEGINNING OF SIMULATION =   78480.00    D   
 .....................................................................

                     CUMULATIVE MASS BUDGETS AT END OF TRANSPORT STEP  206, TIME STEP    1, STRESS PERIOD    3
                     -----------------------------------------------------------------------------------------

                                                             IN                           OUT
                                                      ----------------             ----------------
                               CONSTANT CONCENTRATION:    0.000000                    0.000000    
                                        CONSTANT HEAD:    979.6114                   -544.0328    
                                               STREAM:    0.000000                   -435.5836    
                               MASS STOR (FLOW MODEL):   0.5161509E-02              -0.6986623E-07
                                MASS STORAGE (SOLUTE):    0.000000                    0.000000    
                            ---------------------------------------------------------------------------
                                              [TOTAL]:    979.6166     KG            -979.6164     KG  

                                                          NET (IN - OUT):   0.1831055E-03
                                                   DISCREPANCY (PERCENT):   0.1869155E-04
     2 CALLS TO GCG PACKAGE FOR TRANSPORT TIME STEP   207 IN FLOW TIME STEP     1 STRESS PERIOD     3
      2 TOTAL ITERATIONS
  MAXIMUM CONCENTRATION CHANGES FOR EACH ITERATION:
  MAX. CHANGE LAYER,ROW,COL MAX. CHANGE LAYER,ROW,COL MAX. CHANGE LAYER,ROW,COL MAX. CHANGE LAYER,ROW,COL MAX. CHANGE LAYER,ROW,COL
 ------------------------------------------------------------------------------------------------------------------------------------
    0.000     (  1,  1,  1)   0.000     (  1,  1,  1)


                     STREAM MASS BUDGETS AT END OF TRANSPORT STEP  207, TIME STEP    1, STRESS PERIOD    3 FOR COMPONENT   1
                     -------------------------------------------------------------------------------------------------------

                                         CUMULATIVE MASS [M]                                     MASS FOR THIS TIME STEP [M]
                                         -------------------                                    --------------
                      STREAM DEPLETION =   1924.682                          STREAM DEPLETION =  0.1280187E-01
                      INFLOW TO STREAM =   4677.528                          INFLOW TO STREAM =   8.325000    
                          GW TO STREAM =   436.5827                              GW TO STREAM =  0.9990391    
                         PRECIPITATION =   0.000000                             PRECIPITATION =   0.000000    
                                RUNOFF =   0.000000                                    RUNOFF =   0.000000    
                CONSTANT CONCENTRATION =   0.000000                    CONSTANT CONCENTRATION =   0.000000    
                             MASS GAIN =   0.000000                                 MASS GAIN =   0.000000    
                                         -------------------                                    --------------
                              TOTAL IN =   7038.793                                  TOTAL IN =   9.336841    

                   STREAM ACCUMULATION =   1924.828                       STREAM ACCUMULATION =  0.1296745E-04
                        STREAM OUTFLOW =   5113.966                            STREAM OUTFLOW =   9.336830    
                          STREAM TO GW =   0.000000                              STREAM TO GW =   0.000000    
                CONSTANT CONCENTRATION =   0.000000                    CONSTANT CONCENTRATION =   0.000000    
                           EVAPORATION =   0.000000                               EVAPORATION =   0.000000    
                             MASS LOSS =   0.000000                                 MASS LOSS =   0.000000    
                                         -------------------                                    --------------
                             TOTAL OUT =   7038.794                                 TOTAL OUT =   9.336843    

                        NET (IN - OUT) = -0.1464844E-02                        NET (IN - OUT) = -0.2861023E-05
                 DISCREPANCY (PERCENT) = -0.2081101E-04                 DISCREPANCY (PERCENT) = -0.3064230E-04
                                              FLOW ERR (QIN-QOUT-DV) = -0.9536743E-06 [L3/T]




 >>>>>>>>>>>>>>>>>>>>>>>>>>>>>>>>>>>>>>>>>>>>>>>>>>>>>>>FOR COMPONENT NO. 01<<<<<<<<<<<<<<<<<<<<<<<<<<<<<<<<<<<<<<<<<<<<<<<<<<<<<<<


                                            -------------------------------------------
                                                      TRANSPORT STEP NO.  207
                                            -------------------------------------------

 TOTAL ELAPSED TIME SINCE BEGINNING OF SIMULATION =   78660.00    D   
 .....................................................................

                     CUMULATIVE MASS BUDGETS AT END OF TRANSPORT STEP  207, TIME STEP    1, STRESS PERIOD    3
                     -----------------------------------------------------------------------------------------

                                                             IN                           OUT
                                                      ----------------             ----------------
                               CONSTANT CONCENTRATION:    0.000000                    0.000000    
                                        CONSTANT HEAD:    981.8582                   -545.2806    
                                               STREAM:    0.000000                   -436.5827    
                               MASS STOR (FLOW MODEL):   0.5161509E-02              -0.6986623E-07
                                MASS STORAGE (SOLUTE):    0.000000                    0.000000    
                            ---------------------------------------------------------------------------
                                              [TOTAL]:    981.8634     KG            -981.8633     KG  

                                                          NET (IN - OUT):   0.1220703E-03
                                                   DISCREPANCY (PERCENT):   0.1243252E-04
     2 CALLS TO GCG PACKAGE FOR TRANSPORT TIME STEP   208 IN FLOW TIME STEP     1 STRESS PERIOD     3
      2 TOTAL ITERATIONS
  MAXIMUM CONCENTRATION CHANGES FOR EACH ITERATION:
  MAX. CHANGE LAYER,ROW,COL MAX. CHANGE LAYER,ROW,COL MAX. CHANGE LAYER,ROW,COL MAX. CHANGE LAYER,ROW,COL MAX. CHANGE LAYER,ROW,COL
 ------------------------------------------------------------------------------------------------------------------------------------
    0.000     (  1,  1,  1)   0.000     (  1,  1,  1)


                     STREAM MASS BUDGETS AT END OF TRANSPORT STEP  208, TIME STEP    1, STRESS PERIOD    3 FOR COMPONENT   1
                     -------------------------------------------------------------------------------------------------------

                                         CUMULATIVE MASS [M]                                     MASS FOR THIS TIME STEP [M]
                                         -------------------                                    --------------
                      STREAM DEPLETION =   1924.694                          STREAM DEPLETION =  0.1177826E-01
                      INFLOW TO STREAM =   4685.853                          INFLOW TO STREAM =   8.325000    
                          GW TO STREAM =   437.5817                              GW TO STREAM =  0.9990391    
                         PRECIPITATION =   0.000000                             PRECIPITATION =   0.000000    
                                RUNOFF =   0.000000                                    RUNOFF =   0.000000    
                CONSTANT CONCENTRATION =   0.000000                    CONSTANT CONCENTRATION =   0.000000    
                             MASS GAIN =   0.000000                                 MASS GAIN =   0.000000    
                                         -------------------                                    --------------
                              TOTAL IN =   7048.129                                  TOTAL IN =   9.335816    

                   STREAM ACCUMULATION =   1924.828                       STREAM ACCUMULATION =  0.1243693E-04
                        STREAM OUTFLOW =   5123.302                            STREAM OUTFLOW =   9.335807    
                          STREAM TO GW =   0.000000                              STREAM TO GW =   0.000000    
                CONSTANT CONCENTRATION =   0.000000                    CONSTANT CONCENTRATION =   0.000000    
                           EVAPORATION =   0.000000                               EVAPORATION =   0.000000    
                             MASS LOSS =   0.000000                                 MASS LOSS =   0.000000    
                                         -------------------                                    --------------
                             TOTAL OUT =   7048.130                                 TOTAL OUT =   9.335819    

                        NET (IN - OUT) = -0.1464844E-02                        NET (IN - OUT) = -0.2861023E-05
                 DISCREPANCY (PERCENT) = -0.2078344E-04                 DISCREPANCY (PERCENT) = -0.3064566E-04
                                              FLOW ERR (QIN-QOUT-DV) = -0.9536743E-06 [L3/T]




 >>>>>>>>>>>>>>>>>>>>>>>>>>>>>>>>>>>>>>>>>>>>>>>>>>>>>>>FOR COMPONENT NO. 01<<<<<<<<<<<<<<<<<<<<<<<<<<<<<<<<<<<<<<<<<<<<<<<<<<<<<<<


                                            -------------------------------------------
                                                      TRANSPORT STEP NO.  208
                                            -------------------------------------------

 TOTAL ELAPSED TIME SINCE BEGINNING OF SIMULATION =   78840.00    D   
 .....................................................................

                     CUMULATIVE MASS BUDGETS AT END OF TRANSPORT STEP  208, TIME STEP    1, STRESS PERIOD    3
                     -----------------------------------------------------------------------------------------

                                                             IN                           OUT
                                                      ----------------             ----------------
                               CONSTANT CONCENTRATION:    0.000000                    0.000000    
                                        CONSTANT HEAD:    984.1050                   -546.5284    
                                               STREAM:    0.000000                   -437.5817    
                               MASS STOR (FLOW MODEL):   0.5161509E-02              -0.6986623E-07
                                MASS STORAGE (SOLUTE):    0.000000                    0.000000    
                            ---------------------------------------------------------------------------
                                              [TOTAL]:    984.1102     KG            -984.1101     KG  

                                                          NET (IN - OUT):   0.1220703E-03
                                                   DISCREPANCY (PERCENT):   0.1240413E-04
     2 CALLS TO GCG PACKAGE FOR TRANSPORT TIME STEP   209 IN FLOW TIME STEP     1 STRESS PERIOD     3
      2 TOTAL ITERATIONS
  MAXIMUM CONCENTRATION CHANGES FOR EACH ITERATION:
  MAX. CHANGE LAYER,ROW,COL MAX. CHANGE LAYER,ROW,COL MAX. CHANGE LAYER,ROW,COL MAX. CHANGE LAYER,ROW,COL MAX. CHANGE LAYER,ROW,COL
 ------------------------------------------------------------------------------------------------------------------------------------
    0.000     (  1,  1,  1)   0.000     (  1,  1,  1)


                     STREAM MASS BUDGETS AT END OF TRANSPORT STEP  209, TIME STEP    1, STRESS PERIOD    3 FOR COMPONENT   1
                     -------------------------------------------------------------------------------------------------------

                                         CUMULATIVE MASS [M]                                     MASS FOR THIS TIME STEP [M]
                                         -------------------                                    --------------
                      STREAM DEPLETION =   1924.705                          STREAM DEPLETION =  0.1083542E-01
                      INFLOW TO STREAM =   4694.178                          INFLOW TO STREAM =   8.325000    
                          GW TO STREAM =   438.5808                              GW TO STREAM =  0.9990391    
                         PRECIPITATION =   0.000000                             PRECIPITATION =   0.000000    
                                RUNOFF =   0.000000                                    RUNOFF =   0.000000    
                CONSTANT CONCENTRATION =   0.000000                    CONSTANT CONCENTRATION =   0.000000    
                             MASS GAIN =   0.000000                                 MASS GAIN =   0.000000    
                                         -------------------                                    --------------
                              TOTAL IN =   7057.464                                  TOTAL IN =   9.334874    

                   STREAM ACCUMULATION =   1924.828                       STREAM ACCUMULATION =  0.1192797E-04
                        STREAM OUTFLOW =   5132.637                            STREAM OUTFLOW =   9.334865    
                          STREAM TO GW =   0.000000                              STREAM TO GW =   0.000000    
                CONSTANT CONCENTRATION =   0.000000                    CONSTANT CONCENTRATION =   0.000000    
                           EVAPORATION =   0.000000                               EVAPORATION =   0.000000    
                             MASS LOSS =   0.000000                                 MASS LOSS =   0.000000    
                                         -------------------                                    --------------
                             TOTAL OUT =   7057.465                                 TOTAL OUT =   9.334877    

                        NET (IN - OUT) = -0.1464844E-02                        NET (IN - OUT) = -0.2861023E-05
                 DISCREPANCY (PERCENT) = -0.2075595E-04                 DISCREPANCY (PERCENT) = -0.3064875E-04
                                              FLOW ERR (QIN-QOUT-DV) = -0.9536743E-06 [L3/T]




 >>>>>>>>>>>>>>>>>>>>>>>>>>>>>>>>>>>>>>>>>>>>>>>>>>>>>>>FOR COMPONENT NO. 01<<<<<<<<<<<<<<<<<<<<<<<<<<<<<<<<<<<<<<<<<<<<<<<<<<<<<<<


                                            -------------------------------------------
                                                      TRANSPORT STEP NO.  209
                                            -------------------------------------------

 TOTAL ELAPSED TIME SINCE BEGINNING OF SIMULATION =   79020.00    D   
 .....................................................................

                     CUMULATIVE MASS BUDGETS AT END OF TRANSPORT STEP  209, TIME STEP    1, STRESS PERIOD    3
                     -----------------------------------------------------------------------------------------

                                                             IN                           OUT
                                                      ----------------             ----------------
                               CONSTANT CONCENTRATION:    0.000000                    0.000000    
                                        CONSTANT HEAD:    986.3519                   -547.7762    
                                               STREAM:    0.000000                   -438.5808    
                               MASS STOR (FLOW MODEL):   0.5161509E-02              -0.6986623E-07
                                MASS STORAGE (SOLUTE):    0.000000                    0.000000    
                            ---------------------------------------------------------------------------
                                              [TOTAL]:    986.3571     KG            -986.3569     KG  

                                                          NET (IN - OUT):   0.1220703E-03
                                                   DISCREPANCY (PERCENT):   0.1237588E-04
     2 CALLS TO GCG PACKAGE FOR TRANSPORT TIME STEP   210 IN FLOW TIME STEP     1 STRESS PERIOD     3
      2 TOTAL ITERATIONS
  MAXIMUM CONCENTRATION CHANGES FOR EACH ITERATION:
  MAX. CHANGE LAYER,ROW,COL MAX. CHANGE LAYER,ROW,COL MAX. CHANGE LAYER,ROW,COL MAX. CHANGE LAYER,ROW,COL MAX. CHANGE LAYER,ROW,COL
 ------------------------------------------------------------------------------------------------------------------------------------
    0.000     (  1,  1,  1)   0.000     (  1,  1,  1)


                     STREAM MASS BUDGETS AT END OF TRANSPORT STEP  210, TIME STEP    1, STRESS PERIOD    3 FOR COMPONENT   1
                     -------------------------------------------------------------------------------------------------------

                                         CUMULATIVE MASS [M]                                     MASS FOR THIS TIME STEP [M]
                                         -------------------                                    --------------
                      STREAM DEPLETION =   1924.715                          STREAM DEPLETION =  0.9967105E-02
                      INFLOW TO STREAM =   4702.503                          INFLOW TO STREAM =   8.325000    
                          GW TO STREAM =   439.5798                              GW TO STREAM =  0.9990391    
                         PRECIPITATION =   0.000000                             PRECIPITATION =   0.000000    
                                RUNOFF =   0.000000                                    RUNOFF =   0.000000    
                CONSTANT CONCENTRATION =   0.000000                    CONSTANT CONCENTRATION =   0.000000    
                             MASS GAIN =   0.000000                                 MASS GAIN =   0.000000    
                                         -------------------                                    --------------
                              TOTAL IN =   7066.798                                  TOTAL IN =   9.334005    

                   STREAM ACCUMULATION =   1924.828                       STREAM ACCUMULATION =  0.1143970E-04
                        STREAM OUTFLOW =   5141.971                            STREAM OUTFLOW =   9.333997    
                          STREAM TO GW =   0.000000                              STREAM TO GW =   0.000000    
                CONSTANT CONCENTRATION =   0.000000                    CONSTANT CONCENTRATION =   0.000000    
                           EVAPORATION =   0.000000                               EVAPORATION =   0.000000    
                             MASS LOSS =   0.000000                                 MASS LOSS =   0.000000    
                                         -------------------                                    --------------
                             TOTAL OUT =   7066.799                                 TOTAL OUT =   9.334008    

                        NET (IN - OUT) = -0.9765625E-03                        NET (IN - OUT) = -0.2861023E-05
                 DISCREPANCY (PERCENT) = -0.1381902E-04                 DISCREPANCY (PERCENT) = -0.3065160E-04
                                              FLOW ERR (QIN-QOUT-DV) = -0.9536743E-06 [L3/T]




 >>>>>>>>>>>>>>>>>>>>>>>>>>>>>>>>>>>>>>>>>>>>>>>>>>>>>>>FOR COMPONENT NO. 01<<<<<<<<<<<<<<<<<<<<<<<<<<<<<<<<<<<<<<<<<<<<<<<<<<<<<<<


                                            -------------------------------------------
                                                      TRANSPORT STEP NO.  210
                                            -------------------------------------------

 TOTAL ELAPSED TIME SINCE BEGINNING OF SIMULATION =   79200.00    D   
 .....................................................................

                     CUMULATIVE MASS BUDGETS AT END OF TRANSPORT STEP  210, TIME STEP    1, STRESS PERIOD    3
                     -----------------------------------------------------------------------------------------

                                                             IN                           OUT
                                                      ----------------             ----------------
                               CONSTANT CONCENTRATION:    0.000000                    0.000000    
                                        CONSTANT HEAD:    988.5987                   -549.0240    
                                               STREAM:    0.000000                   -439.5798    
                               MASS STOR (FLOW MODEL):   0.5161509E-02              -0.6986623E-07
                                MASS STORAGE (SOLUTE):    0.000000                    0.000000    
                            ---------------------------------------------------------------------------
                                              [TOTAL]:    988.6039     KG            -988.6038     KG  

                                                          NET (IN - OUT):   0.6103516E-04
                                                   DISCREPANCY (PERCENT):   0.6173874E-05
     2 CALLS TO GCG PACKAGE FOR TRANSPORT TIME STEP   211 IN FLOW TIME STEP     1 STRESS PERIOD     3
      2 TOTAL ITERATIONS
  MAXIMUM CONCENTRATION CHANGES FOR EACH ITERATION:
  MAX. CHANGE LAYER,ROW,COL MAX. CHANGE LAYER,ROW,COL MAX. CHANGE LAYER,ROW,COL MAX. CHANGE LAYER,ROW,COL MAX. CHANGE LAYER,ROW,COL
 ------------------------------------------------------------------------------------------------------------------------------------
    0.000     (  1,  1,  1)   0.000     (  1,  1,  1)


                     STREAM MASS BUDGETS AT END OF TRANSPORT STEP  211, TIME STEP    1, STRESS PERIOD    3 FOR COMPONENT   1
                     -------------------------------------------------------------------------------------------------------

                                         CUMULATIVE MASS [M]                                     MASS FOR THIS TIME STEP [M]
                                         -------------------                                    --------------
                      STREAM DEPLETION =   1924.724                          STREAM DEPLETION =  0.9167521E-02
                      INFLOW TO STREAM =   4710.829                          INFLOW TO STREAM =   8.325000    
                          GW TO STREAM =   440.5789                              GW TO STREAM =  0.9990391    
                         PRECIPITATION =   0.000000                             PRECIPITATION =   0.000000    
                                RUNOFF =   0.000000                                    RUNOFF =   0.000000    
                CONSTANT CONCENTRATION =   0.000000                    CONSTANT CONCENTRATION =   0.000000    
                             MASS GAIN =   0.000000                                 MASS GAIN =   0.000000    
                                         -------------------                                    --------------
                              TOTAL IN =   7076.132                                  TOTAL IN =   9.333206    

                   STREAM ACCUMULATION =   1924.828                       STREAM ACCUMULATION =  0.1097128E-04
                        STREAM OUTFLOW =   5151.304                            STREAM OUTFLOW =   9.333198    
                          STREAM TO GW =   0.000000                              STREAM TO GW =   0.000000    
                CONSTANT CONCENTRATION =   0.000000                    CONSTANT CONCENTRATION =   0.000000    
                           EVAPORATION =   0.000000                               EVAPORATION =   0.000000    
                             MASS LOSS =   0.000000                                 MASS LOSS =   0.000000    
                                         -------------------                                    --------------
                             TOTAL OUT =   7076.132                                 TOTAL OUT =   9.333209    

                        NET (IN - OUT) = -0.4882812E-03                        NET (IN - OUT) = -0.2861023E-05
                 DISCREPANCY (PERCENT) = -0.6900398E-05                 DISCREPANCY (PERCENT) = -0.3065423E-04
                                              FLOW ERR (QIN-QOUT-DV) = -0.9536743E-06 [L3/T]




 >>>>>>>>>>>>>>>>>>>>>>>>>>>>>>>>>>>>>>>>>>>>>>>>>>>>>>>FOR COMPONENT NO. 01<<<<<<<<<<<<<<<<<<<<<<<<<<<<<<<<<<<<<<<<<<<<<<<<<<<<<<<


                                            -------------------------------------------
                                                      TRANSPORT STEP NO.  211
                                            -------------------------------------------

 TOTAL ELAPSED TIME SINCE BEGINNING OF SIMULATION =   79380.00    D   
 .....................................................................

                     CUMULATIVE MASS BUDGETS AT END OF TRANSPORT STEP  211, TIME STEP    1, STRESS PERIOD    3
                     -----------------------------------------------------------------------------------------

                                                             IN                           OUT
                                                      ----------------             ----------------
                               CONSTANT CONCENTRATION:    0.000000                    0.000000    
                                        CONSTANT HEAD:    990.8455                   -550.2718    
                                               STREAM:    0.000000                   -440.5789    
                               MASS STOR (FLOW MODEL):   0.5161509E-02              -0.6986623E-07
                                MASS STORAGE (SOLUTE):    0.000000                    0.000000    
                            ---------------------------------------------------------------------------
                                              [TOTAL]:    990.8507     KG            -990.8507     KG  

                                                          NET (IN - OUT):    0.000000    
                                                   DISCREPANCY (PERCENT):    0.000000    
     2 CALLS TO GCG PACKAGE FOR TRANSPORT TIME STEP   212 IN FLOW TIME STEP     1 STRESS PERIOD     3
      2 TOTAL ITERATIONS
  MAXIMUM CONCENTRATION CHANGES FOR EACH ITERATION:
  MAX. CHANGE LAYER,ROW,COL MAX. CHANGE LAYER,ROW,COL MAX. CHANGE LAYER,ROW,COL MAX. CHANGE LAYER,ROW,COL MAX. CHANGE LAYER,ROW,COL
 ------------------------------------------------------------------------------------------------------------------------------------
    0.000     (  1,  1,  1)   0.000     (  1,  1,  1)


                     STREAM MASS BUDGETS AT END OF TRANSPORT STEP  212, TIME STEP    1, STRESS PERIOD    3 FOR COMPONENT   1
                     -------------------------------------------------------------------------------------------------------

                                         CUMULATIVE MASS [M]                                     MASS FOR THIS TIME STEP [M]
                                         -------------------                                    --------------
                      STREAM DEPLETION =   1924.733                          STREAM DEPLETION =  0.8431326E-02
                      INFLOW TO STREAM =   4719.154                          INFLOW TO STREAM =   8.325000    
                          GW TO STREAM =   441.5779                              GW TO STREAM =  0.9990391    
                         PRECIPITATION =   0.000000                             PRECIPITATION =   0.000000    
                                RUNOFF =   0.000000                                    RUNOFF =   0.000000    
                CONSTANT CONCENTRATION =   0.000000                    CONSTANT CONCENTRATION =   0.000000    
                             MASS GAIN =   0.000000                                 MASS GAIN =   0.000000    
                                         -------------------                                    --------------
                              TOTAL IN =   7085.464                                  TOTAL IN =   9.332470    

                   STREAM ACCUMULATION =   1924.828                       STREAM ACCUMULATION =  0.1052191E-04
                        STREAM OUTFLOW =   5160.637                            STREAM OUTFLOW =   9.332461    
                          STREAM TO GW =   0.000000                              STREAM TO GW =   0.000000    
                CONSTANT CONCENTRATION =   0.000000                    CONSTANT CONCENTRATION =   0.000000    
                           EVAPORATION =   0.000000                               EVAPORATION =   0.000000    
                             MASS LOSS =   0.000000                                 MASS LOSS =   0.000000    
                                         -------------------                                    --------------
                             TOTAL OUT =   7085.465                                 TOTAL OUT =   9.332472    

                        NET (IN - OUT) = -0.4882812E-03                        NET (IN - OUT) = -0.1907349E-05
                 DISCREPANCY (PERCENT) = -0.6891309E-05                 DISCREPANCY (PERCENT) = -0.2043777E-04
                                              FLOW ERR (QIN-QOUT-DV) = -0.9536743E-06 [L3/T]




 >>>>>>>>>>>>>>>>>>>>>>>>>>>>>>>>>>>>>>>>>>>>>>>>>>>>>>>FOR COMPONENT NO. 01<<<<<<<<<<<<<<<<<<<<<<<<<<<<<<<<<<<<<<<<<<<<<<<<<<<<<<<


                                            -------------------------------------------
                                                      TRANSPORT STEP NO.  212
                                            -------------------------------------------

 TOTAL ELAPSED TIME SINCE BEGINNING OF SIMULATION =   79560.00    D   
 .....................................................................

                     CUMULATIVE MASS BUDGETS AT END OF TRANSPORT STEP  212, TIME STEP    1, STRESS PERIOD    3
                     -----------------------------------------------------------------------------------------

                                                             IN                           OUT
                                                      ----------------             ----------------
                               CONSTANT CONCENTRATION:    0.000000                    0.000000    
                                        CONSTANT HEAD:    993.0923                   -551.5196    
                                               STREAM:    0.000000                   -441.5779    
                               MASS STOR (FLOW MODEL):   0.5161509E-02              -0.6986623E-07
                                MASS STORAGE (SOLUTE):    0.000000                    0.000000    
                            ---------------------------------------------------------------------------
                                              [TOTAL]:    993.0975     KG            -993.0975     KG  

                                                          NET (IN - OUT):    0.000000    
                                                   DISCREPANCY (PERCENT):    0.000000    
     2 CALLS TO GCG PACKAGE FOR TRANSPORT TIME STEP   213 IN FLOW TIME STEP     1 STRESS PERIOD     3
      2 TOTAL ITERATIONS
  MAXIMUM CONCENTRATION CHANGES FOR EACH ITERATION:
  MAX. CHANGE LAYER,ROW,COL MAX. CHANGE LAYER,ROW,COL MAX. CHANGE LAYER,ROW,COL MAX. CHANGE LAYER,ROW,COL MAX. CHANGE LAYER,ROW,COL
 ------------------------------------------------------------------------------------------------------------------------------------
    0.000     (  1,  1,  1)   0.000     (  1,  1,  1)


                     STREAM MASS BUDGETS AT END OF TRANSPORT STEP  213, TIME STEP    1, STRESS PERIOD    3 FOR COMPONENT   1
                     -------------------------------------------------------------------------------------------------------

                                         CUMULATIVE MASS [M]                                     MASS FOR THIS TIME STEP [M]
                                         -------------------                                    --------------
                      STREAM DEPLETION =   1924.740                          STREAM DEPLETION =  0.7753570E-02
                      INFLOW TO STREAM =   4727.479                          INFLOW TO STREAM =   8.325000    
                          GW TO STREAM =   442.5770                              GW TO STREAM =  0.9990391    
                         PRECIPITATION =   0.000000                             PRECIPITATION =   0.000000    
                                RUNOFF =   0.000000                                    RUNOFF =   0.000000    
                CONSTANT CONCENTRATION =   0.000000                    CONSTANT CONCENTRATION =   0.000000    
                             MASS GAIN =   0.000000                                 MASS GAIN =   0.000000    
                                         -------------------                                    --------------
                              TOTAL IN =   7094.796                                  TOTAL IN =   9.331792    

                   STREAM ACCUMULATION =   1924.828                       STREAM ACCUMULATION =  0.1009082E-04
                        STREAM OUTFLOW =   5169.968                            STREAM OUTFLOW =   9.331784    
                          STREAM TO GW =   0.000000                              STREAM TO GW =   0.000000    
                CONSTANT CONCENTRATION =   0.000000                    CONSTANT CONCENTRATION =   0.000000    
                           EVAPORATION =   0.000000                               EVAPORATION =   0.000000    
                             MASS LOSS =   0.000000                                 MASS LOSS =   0.000000    
                                         -------------------                                    --------------
                             TOTAL OUT =   7094.796                                 TOTAL OUT =   9.331795    

                        NET (IN - OUT) =   0.000000                            NET (IN - OUT) = -0.2861023E-05
                 DISCREPANCY (PERCENT) =   0.000000                     DISCREPANCY (PERCENT) = -0.3065888E-04
                                              FLOW ERR (QIN-QOUT-DV) = -0.9536743E-06 [L3/T]




 >>>>>>>>>>>>>>>>>>>>>>>>>>>>>>>>>>>>>>>>>>>>>>>>>>>>>>>FOR COMPONENT NO. 01<<<<<<<<<<<<<<<<<<<<<<<<<<<<<<<<<<<<<<<<<<<<<<<<<<<<<<<


                                            -------------------------------------------
                                                      TRANSPORT STEP NO.  213
                                            -------------------------------------------

 TOTAL ELAPSED TIME SINCE BEGINNING OF SIMULATION =   79740.00    D   
 .....................................................................

                     CUMULATIVE MASS BUDGETS AT END OF TRANSPORT STEP  213, TIME STEP    1, STRESS PERIOD    3
                     -----------------------------------------------------------------------------------------

                                                             IN                           OUT
                                                      ----------------             ----------------
                               CONSTANT CONCENTRATION:    0.000000                    0.000000    
                                        CONSTANT HEAD:    995.3392                   -552.7674    
                                               STREAM:    0.000000                   -442.5770    
                               MASS STOR (FLOW MODEL):   0.5161509E-02              -0.6986623E-07
                                MASS STORAGE (SOLUTE):    0.000000                    0.000000    
                            ---------------------------------------------------------------------------
                                              [TOTAL]:    995.3444     KG            -995.3444     KG  

                                                          NET (IN - OUT):    0.000000    
                                                   DISCREPANCY (PERCENT):    0.000000    
     2 CALLS TO GCG PACKAGE FOR TRANSPORT TIME STEP   214 IN FLOW TIME STEP     1 STRESS PERIOD     3
      2 TOTAL ITERATIONS
  MAXIMUM CONCENTRATION CHANGES FOR EACH ITERATION:
  MAX. CHANGE LAYER,ROW,COL MAX. CHANGE LAYER,ROW,COL MAX. CHANGE LAYER,ROW,COL MAX. CHANGE LAYER,ROW,COL MAX. CHANGE LAYER,ROW,COL
 ------------------------------------------------------------------------------------------------------------------------------------
    0.000     (  1,  1,  1)   0.000     (  1,  1,  1)


                     STREAM MASS BUDGETS AT END OF TRANSPORT STEP  214, TIME STEP    1, STRESS PERIOD    3 FOR COMPONENT   1
                     -------------------------------------------------------------------------------------------------------

                                         CUMULATIVE MASS [M]                                     MASS FOR THIS TIME STEP [M]
                                         -------------------                                    --------------
                      STREAM DEPLETION =   1924.748                          STREAM DEPLETION =  0.7129691E-02
                      INFLOW TO STREAM =   4735.804                          INFLOW TO STREAM =   8.325000    
                          GW TO STREAM =   443.5760                              GW TO STREAM =  0.9990391    
                         PRECIPITATION =   0.000000                             PRECIPITATION =   0.000000    
                                RUNOFF =   0.000000                                    RUNOFF =   0.000000    
                CONSTANT CONCENTRATION =   0.000000                    CONSTANT CONCENTRATION =   0.000000    
                             MASS GAIN =   0.000000                                 MASS GAIN =   0.000000    
                                         -------------------                                    --------------
                              TOTAL IN =   7104.128                                  TOTAL IN =   9.331168    

                   STREAM ACCUMULATION =   1924.828                       STREAM ACCUMULATION =  0.9677272E-05
                        STREAM OUTFLOW =   5179.299                            STREAM OUTFLOW =   9.331161    
                          STREAM TO GW =   0.000000                              STREAM TO GW =   0.000000    
                CONSTANT CONCENTRATION =   0.000000                    CONSTANT CONCENTRATION =   0.000000    
                           EVAPORATION =   0.000000                               EVAPORATION =   0.000000    
                             MASS LOSS =   0.000000                                 MASS LOSS =   0.000000    
                                         -------------------                                    --------------
                             TOTAL OUT =   7104.127                                 TOTAL OUT =   9.331170    

                        NET (IN - OUT) =  0.4882812E-03                        NET (IN - OUT) = -0.1907349E-05
                 DISCREPANCY (PERCENT) =  0.6873205E-05                 DISCREPANCY (PERCENT) = -0.2044062E-04
                                              FLOW ERR (QIN-QOUT-DV) = -0.9536743E-06 [L3/T]




 >>>>>>>>>>>>>>>>>>>>>>>>>>>>>>>>>>>>>>>>>>>>>>>>>>>>>>>FOR COMPONENT NO. 01<<<<<<<<<<<<<<<<<<<<<<<<<<<<<<<<<<<<<<<<<<<<<<<<<<<<<<<


                                            -------------------------------------------
                                                      TRANSPORT STEP NO.  214
                                            -------------------------------------------

 TOTAL ELAPSED TIME SINCE BEGINNING OF SIMULATION =   79920.00    D   
 .....................................................................

                     CUMULATIVE MASS BUDGETS AT END OF TRANSPORT STEP  214, TIME STEP    1, STRESS PERIOD    3
                     -----------------------------------------------------------------------------------------

                                                             IN                           OUT
                                                      ----------------             ----------------
                               CONSTANT CONCENTRATION:    0.000000                    0.000000    
                                        CONSTANT HEAD:    997.5860                   -554.0152    
                                               STREAM:    0.000000                   -443.5760    
                               MASS STOR (FLOW MODEL):   0.5161509E-02              -0.6986623E-07
                                MASS STORAGE (SOLUTE):    0.000000                    0.000000    
                            ---------------------------------------------------------------------------
                                              [TOTAL]:    997.5912     KG            -997.5912     KG  

                                                          NET (IN - OUT):  -0.6103516E-04
                                                   DISCREPANCY (PERCENT):  -0.6118253E-05
     2 CALLS TO GCG PACKAGE FOR TRANSPORT TIME STEP   215 IN FLOW TIME STEP     1 STRESS PERIOD     3
      2 TOTAL ITERATIONS
  MAXIMUM CONCENTRATION CHANGES FOR EACH ITERATION:
  MAX. CHANGE LAYER,ROW,COL MAX. CHANGE LAYER,ROW,COL MAX. CHANGE LAYER,ROW,COL MAX. CHANGE LAYER,ROW,COL MAX. CHANGE LAYER,ROW,COL
 ------------------------------------------------------------------------------------------------------------------------------------
    0.000     (  1,  1,  1)   0.000     (  1,  1,  1)


                     STREAM MASS BUDGETS AT END OF TRANSPORT STEP  215, TIME STEP    1, STRESS PERIOD    3 FOR COMPONENT   1
                     -------------------------------------------------------------------------------------------------------

                                         CUMULATIVE MASS [M]                                     MASS FOR THIS TIME STEP [M]
                                         -------------------                                    --------------
                      STREAM DEPLETION =   1924.754                          STREAM DEPLETION =  0.6555477E-02
                      INFLOW TO STREAM =   4744.129                          INFLOW TO STREAM =   8.325000    
                          GW TO STREAM =   444.5751                              GW TO STREAM =  0.9990391    
                         PRECIPITATION =   0.000000                             PRECIPITATION =   0.000000    
                                RUNOFF =   0.000000                                    RUNOFF =   0.000000    
                CONSTANT CONCENTRATION =   0.000000                    CONSTANT CONCENTRATION =   0.000000    
                             MASS GAIN =   0.000000                                 MASS GAIN =   0.000000    
                                         -------------------                                    --------------
                              TOTAL IN =   7113.459                                  TOTAL IN =   9.330594    

                   STREAM ACCUMULATION =   1924.828                       STREAM ACCUMULATION =  0.9284877E-05
                        STREAM OUTFLOW =   5188.630                            STREAM OUTFLOW =   9.330587    
                          STREAM TO GW =   0.000000                              STREAM TO GW =   0.000000    
                CONSTANT CONCENTRATION =   0.000000                    CONSTANT CONCENTRATION =   0.000000    
                           EVAPORATION =   0.000000                               EVAPORATION =   0.000000    
                             MASS LOSS =   0.000000                                 MASS LOSS =   0.000000    
                                         -------------------                                    --------------
                             TOTAL OUT =   7113.458                                 TOTAL OUT =   9.330597    

                        NET (IN - OUT) =  0.9765625E-03                        NET (IN - OUT) = -0.2861023E-05
                 DISCREPANCY (PERCENT) =  0.1372838E-04                 DISCREPANCY (PERCENT) = -0.3066281E-04
                                              FLOW ERR (QIN-QOUT-DV) = -0.9536743E-06 [L3/T]




 >>>>>>>>>>>>>>>>>>>>>>>>>>>>>>>>>>>>>>>>>>>>>>>>>>>>>>>FOR COMPONENT NO. 01<<<<<<<<<<<<<<<<<<<<<<<<<<<<<<<<<<<<<<<<<<<<<<<<<<<<<<<


                                            -------------------------------------------
                                                      TRANSPORT STEP NO.  215
                                            -------------------------------------------

 TOTAL ELAPSED TIME SINCE BEGINNING OF SIMULATION =   80100.00    D   
 .....................................................................

                     CUMULATIVE MASS BUDGETS AT END OF TRANSPORT STEP  215, TIME STEP    1, STRESS PERIOD    3
                     -----------------------------------------------------------------------------------------

                                                             IN                           OUT
                                                      ----------------             ----------------
                               CONSTANT CONCENTRATION:    0.000000                    0.000000    
                                        CONSTANT HEAD:    999.8328                   -555.2630    
                                               STREAM:    0.000000                   -444.5751    
                               MASS STOR (FLOW MODEL):   0.5161509E-02              -0.6986623E-07
                                MASS STORAGE (SOLUTE):    0.000000                    0.000000    
                            ---------------------------------------------------------------------------
                                              [TOTAL]:    999.8380     KG            -999.8381     KG  

                                                          NET (IN - OUT):  -0.1220703E-03
                                                   DISCREPANCY (PERCENT):  -0.1220901E-04
     2 CALLS TO GCG PACKAGE FOR TRANSPORT TIME STEP   216 IN FLOW TIME STEP     1 STRESS PERIOD     3
      2 TOTAL ITERATIONS
  MAXIMUM CONCENTRATION CHANGES FOR EACH ITERATION:
  MAX. CHANGE LAYER,ROW,COL MAX. CHANGE LAYER,ROW,COL MAX. CHANGE LAYER,ROW,COL MAX. CHANGE LAYER,ROW,COL MAX. CHANGE LAYER,ROW,COL
 ------------------------------------------------------------------------------------------------------------------------------------
    0.000     (  1,  1,  1)   0.000     (  1,  1,  1)


                     STREAM MASS BUDGETS AT END OF TRANSPORT STEP  216, TIME STEP    1, STRESS PERIOD    3 FOR COMPONENT   1
                     -------------------------------------------------------------------------------------------------------

                                         CUMULATIVE MASS [M]                                     MASS FOR THIS TIME STEP [M]
                                         -------------------                                    --------------
                      STREAM DEPLETION =   1924.760                          STREAM DEPLETION =  0.6027033E-02
                      INFLOW TO STREAM =   4752.455                          INFLOW TO STREAM =   8.325000    
                          GW TO STREAM =   445.5742                              GW TO STREAM =  0.9990391    
                         PRECIPITATION =   0.000000                             PRECIPITATION =   0.000000    
                                RUNOFF =   0.000000                                    RUNOFF =   0.000000    
                CONSTANT CONCENTRATION =   0.000000                    CONSTANT CONCENTRATION =   0.000000    
                             MASS GAIN =   0.000000                                 MASS GAIN =   0.000000    
                                         -------------------                                    --------------
                              TOTAL IN =   7122.789                                  TOTAL IN =   9.330066    

                   STREAM ACCUMULATION =   1924.828                       STREAM ACCUMULATION =  0.8912109E-05
                        STREAM OUTFLOW =   5197.960                            STREAM OUTFLOW =   9.330059    
                          STREAM TO GW =   0.000000                              STREAM TO GW =   0.000000    
                CONSTANT CONCENTRATION =   0.000000                    CONSTANT CONCENTRATION =   0.000000    
                           EVAPORATION =   0.000000                               EVAPORATION =   0.000000    
                             MASS LOSS =   0.000000                                 MASS LOSS =   0.000000    
                                         -------------------                                    --------------
                             TOTAL OUT =   7122.788                                 TOTAL OUT =   9.330068    

                        NET (IN - OUT) =  0.9765625E-03                        NET (IN - OUT) = -0.1907349E-05
                 DISCREPANCY (PERCENT) =  0.1371040E-04                 DISCREPANCY (PERCENT) = -0.2044303E-04
                                              FLOW ERR (QIN-QOUT-DV) = -0.9536743E-06 [L3/T]




 >>>>>>>>>>>>>>>>>>>>>>>>>>>>>>>>>>>>>>>>>>>>>>>>>>>>>>>FOR COMPONENT NO. 01<<<<<<<<<<<<<<<<<<<<<<<<<<<<<<<<<<<<<<<<<<<<<<<<<<<<<<<


                                            -------------------------------------------
                                                      TRANSPORT STEP NO.  216
                                            -------------------------------------------

 TOTAL ELAPSED TIME SINCE BEGINNING OF SIMULATION =   80280.00    D   
 .....................................................................

                     CUMULATIVE MASS BUDGETS AT END OF TRANSPORT STEP  216, TIME STEP    1, STRESS PERIOD    3
                     -----------------------------------------------------------------------------------------

                                                             IN                           OUT
                                                      ----------------             ----------------
                               CONSTANT CONCENTRATION:    0.000000                    0.000000    
                                        CONSTANT HEAD:    1002.080                   -556.5108    
                                               STREAM:    0.000000                   -445.5742    
                               MASS STOR (FLOW MODEL):   0.5161509E-02              -0.6986623E-07
                                MASS STORAGE (SOLUTE):    0.000000                    0.000000    
                            ---------------------------------------------------------------------------
                                              [TOTAL]:    1002.085     KG            -1002.085     KG  

                                                          NET (IN - OUT):  -0.1220703E-03
                                                   DISCREPANCY (PERCENT):  -0.1218163E-04
     2 CALLS TO GCG PACKAGE FOR TRANSPORT TIME STEP   217 IN FLOW TIME STEP     1 STRESS PERIOD     3
      2 TOTAL ITERATIONS
  MAXIMUM CONCENTRATION CHANGES FOR EACH ITERATION:
  MAX. CHANGE LAYER,ROW,COL MAX. CHANGE LAYER,ROW,COL MAX. CHANGE LAYER,ROW,COL MAX. CHANGE LAYER,ROW,COL MAX. CHANGE LAYER,ROW,COL
 ------------------------------------------------------------------------------------------------------------------------------------
    0.000     (  1,  1,  1)   0.000     (  1,  1,  1)


                     STREAM MASS BUDGETS AT END OF TRANSPORT STEP  217, TIME STEP    1, STRESS PERIOD    3 FOR COMPONENT   1
                     -------------------------------------------------------------------------------------------------------

                                         CUMULATIVE MASS [M]                                     MASS FOR THIS TIME STEP [M]
                                         -------------------                                    --------------
                      STREAM DEPLETION =   1924.766                          STREAM DEPLETION =  0.5540759E-02
                      INFLOW TO STREAM =   4760.780                          INFLOW TO STREAM =   8.325000    
                          GW TO STREAM =   446.5732                              GW TO STREAM =  0.9990391    
                         PRECIPITATION =   0.000000                             PRECIPITATION =   0.000000    
                                RUNOFF =   0.000000                                    RUNOFF =   0.000000    
                CONSTANT CONCENTRATION =   0.000000                    CONSTANT CONCENTRATION =   0.000000    
                             MASS GAIN =   0.000000                                 MASS GAIN =   0.000000    
                                         -------------------                                    --------------
                              TOTAL IN =   7132.119                                  TOTAL IN =   9.329579    

                   STREAM ACCUMULATION =   1924.828                       STREAM ACCUMULATION =  0.8554267E-05
                        STREAM OUTFLOW =   5207.290                            STREAM OUTFLOW =   9.329573    
                          STREAM TO GW =   0.000000                              STREAM TO GW =   0.000000    
                CONSTANT CONCENTRATION =   0.000000                    CONSTANT CONCENTRATION =   0.000000    
                           EVAPORATION =   0.000000                               EVAPORATION =   0.000000    
                             MASS LOSS =   0.000000                                 MASS LOSS =   0.000000    
                                         -------------------                                    --------------
                             TOTAL OUT =   7132.118                                 TOTAL OUT =   9.329581    

                        NET (IN - OUT) =  0.9765625E-03                        NET (IN - OUT) = -0.1907349E-05
                 DISCREPANCY (PERCENT) =  0.1369246E-04                 DISCREPANCY (PERCENT) = -0.2044410E-04
                                              FLOW ERR (QIN-QOUT-DV) = -0.9536743E-06 [L3/T]




 >>>>>>>>>>>>>>>>>>>>>>>>>>>>>>>>>>>>>>>>>>>>>>>>>>>>>>>FOR COMPONENT NO. 01<<<<<<<<<<<<<<<<<<<<<<<<<<<<<<<<<<<<<<<<<<<<<<<<<<<<<<<


                                            -------------------------------------------
                                                      TRANSPORT STEP NO.  217
                                            -------------------------------------------

 TOTAL ELAPSED TIME SINCE BEGINNING OF SIMULATION =   80460.00    D   
 .....................................................................

                     CUMULATIVE MASS BUDGETS AT END OF TRANSPORT STEP  217, TIME STEP    1, STRESS PERIOD    3
                     -----------------------------------------------------------------------------------------

                                                             IN                           OUT
                                                      ----------------             ----------------
                               CONSTANT CONCENTRATION:    0.000000                    0.000000    
                                        CONSTANT HEAD:    1004.326                   -557.7586    
                                               STREAM:    0.000000                   -446.5732    
                               MASS STOR (FLOW MODEL):   0.5161509E-02              -0.6986623E-07
                                MASS STORAGE (SOLUTE):    0.000000                    0.000000    
                            ---------------------------------------------------------------------------
                                              [TOTAL]:    1004.332     KG            -1004.332     KG  

                                                          NET (IN - OUT):  -0.1220703E-03
                                                   DISCREPANCY (PERCENT):  -0.1215438E-04
     2 CALLS TO GCG PACKAGE FOR TRANSPORT TIME STEP   218 IN FLOW TIME STEP     1 STRESS PERIOD     3
      2 TOTAL ITERATIONS
  MAXIMUM CONCENTRATION CHANGES FOR EACH ITERATION:
  MAX. CHANGE LAYER,ROW,COL MAX. CHANGE LAYER,ROW,COL MAX. CHANGE LAYER,ROW,COL MAX. CHANGE LAYER,ROW,COL MAX. CHANGE LAYER,ROW,COL
 ------------------------------------------------------------------------------------------------------------------------------------
    0.000     (  1,  1,  1)   0.000     (  1,  1,  1)


                     STREAM MASS BUDGETS AT END OF TRANSPORT STEP  218, TIME STEP    1, STRESS PERIOD    3 FOR COMPONENT   1
                     -------------------------------------------------------------------------------------------------------

                                         CUMULATIVE MASS [M]                                     MASS FOR THIS TIME STEP [M]
                                         -------------------                                    --------------
                      STREAM DEPLETION =   1924.771                          STREAM DEPLETION =  0.5093338E-02
                      INFLOW TO STREAM =   4769.105                          INFLOW TO STREAM =   8.325000    
                          GW TO STREAM =   447.5723                              GW TO STREAM =  0.9990391    
                         PRECIPITATION =   0.000000                             PRECIPITATION =   0.000000    
                                RUNOFF =   0.000000                                    RUNOFF =   0.000000    
                CONSTANT CONCENTRATION =   0.000000                    CONSTANT CONCENTRATION =   0.000000    
                             MASS GAIN =   0.000000                                 MASS GAIN =   0.000000    
                                         -------------------                                    --------------
                              TOTAL IN =   7141.448                                  TOTAL IN =   9.329132    

                   STREAM ACCUMULATION =   1924.828                       STREAM ACCUMULATION =  0.8210762E-05
                        STREAM OUTFLOW =   5216.619                            STREAM OUTFLOW =   9.329126    
                          STREAM TO GW =   0.000000                              STREAM TO GW =   0.000000    
                CONSTANT CONCENTRATION =   0.000000                    CONSTANT CONCENTRATION =   0.000000    
                           EVAPORATION =   0.000000                               EVAPORATION =   0.000000    
                             MASS LOSS =   0.000000                                 MASS LOSS =   0.000000    
                                         -------------------                                    --------------
                             TOTAL OUT =   7141.447                                 TOTAL OUT =   9.329135    

                        NET (IN - OUT) =  0.1464844E-02                        NET (IN - OUT) = -0.2861023E-05
                 DISCREPANCY (PERCENT) =  0.2051186E-04                 DISCREPANCY (PERCENT) = -0.3066762E-04
                                              FLOW ERR (QIN-QOUT-DV) = -0.9536743E-06 [L3/T]




 >>>>>>>>>>>>>>>>>>>>>>>>>>>>>>>>>>>>>>>>>>>>>>>>>>>>>>>FOR COMPONENT NO. 01<<<<<<<<<<<<<<<<<<<<<<<<<<<<<<<<<<<<<<<<<<<<<<<<<<<<<<<


                                            -------------------------------------------
                                                      TRANSPORT STEP NO.  218
                                            -------------------------------------------

 TOTAL ELAPSED TIME SINCE BEGINNING OF SIMULATION =   80640.00    D   
 .....................................................................

                     CUMULATIVE MASS BUDGETS AT END OF TRANSPORT STEP  218, TIME STEP    1, STRESS PERIOD    3
                     -----------------------------------------------------------------------------------------

                                                             IN                           OUT
                                                      ----------------             ----------------
                               CONSTANT CONCENTRATION:    0.000000                    0.000000    
                                        CONSTANT HEAD:    1006.573                   -559.0064    
                                               STREAM:    0.000000                   -447.5723    
                               MASS STOR (FLOW MODEL):   0.5161509E-02              -0.6986623E-07
                                MASS STORAGE (SOLUTE):    0.000000                    0.000000    
                            ---------------------------------------------------------------------------
                                              [TOTAL]:    1006.578     KG            -1006.579     KG  

                                                          NET (IN - OUT):  -0.1831055E-03
                                                   DISCREPANCY (PERCENT):  -0.1819088E-04
     2 CALLS TO GCG PACKAGE FOR TRANSPORT TIME STEP   219 IN FLOW TIME STEP     1 STRESS PERIOD     3
      2 TOTAL ITERATIONS
  MAXIMUM CONCENTRATION CHANGES FOR EACH ITERATION:
  MAX. CHANGE LAYER,ROW,COL MAX. CHANGE LAYER,ROW,COL MAX. CHANGE LAYER,ROW,COL MAX. CHANGE LAYER,ROW,COL MAX. CHANGE LAYER,ROW,COL
 ------------------------------------------------------------------------------------------------------------------------------------
    0.000     (  1,  1,  1)   0.000     (  1,  1,  1)


                     STREAM MASS BUDGETS AT END OF TRANSPORT STEP  219, TIME STEP    1, STRESS PERIOD    3 FOR COMPONENT   1
                     -------------------------------------------------------------------------------------------------------

                                         CUMULATIVE MASS [M]                                     MASS FOR THIS TIME STEP [M]
                                         -------------------                                    --------------
                      STREAM DEPLETION =   1924.775                          STREAM DEPLETION =  0.4681707E-02
                      INFLOW TO STREAM =   4777.430                          INFLOW TO STREAM =   8.325000    
                          GW TO STREAM =   448.5713                              GW TO STREAM =  0.9990391    
                         PRECIPITATION =   0.000000                             PRECIPITATION =   0.000000    
                                RUNOFF =   0.000000                                    RUNOFF =   0.000000    
                CONSTANT CONCENTRATION =   0.000000                    CONSTANT CONCENTRATION =   0.000000    
                             MASS GAIN =   0.000000                                 MASS GAIN =   0.000000    
                                         -------------------                                    --------------
                              TOTAL IN =   7150.777                                  TOTAL IN =   9.328720    

                   STREAM ACCUMULATION =   1924.828                       STREAM ACCUMULATION =  0.7881015E-05
                        STREAM OUTFLOW =   5225.947                            STREAM OUTFLOW =   9.328714    
                          STREAM TO GW =   0.000000                              STREAM TO GW =   0.000000    
                CONSTANT CONCENTRATION =   0.000000                    CONSTANT CONCENTRATION =   0.000000    
                           EVAPORATION =   0.000000                               EVAPORATION =   0.000000    
                             MASS LOSS =   0.000000                                 MASS LOSS =   0.000000    
                                         -------------------                                    --------------
                             TOTAL OUT =   7150.775                                 TOTAL OUT =   9.328722    

                        NET (IN - OUT) =  0.1464844E-02                        NET (IN - OUT) = -0.1907349E-05
                 DISCREPANCY (PERCENT) =  0.2048510E-04                 DISCREPANCY (PERCENT) = -0.2044598E-04
                                              FLOW ERR (QIN-QOUT-DV) = -0.9536743E-06 [L3/T]




 >>>>>>>>>>>>>>>>>>>>>>>>>>>>>>>>>>>>>>>>>>>>>>>>>>>>>>>FOR COMPONENT NO. 01<<<<<<<<<<<<<<<<<<<<<<<<<<<<<<<<<<<<<<<<<<<<<<<<<<<<<<<


                                            -------------------------------------------
                                                      TRANSPORT STEP NO.  219
                                            -------------------------------------------

 TOTAL ELAPSED TIME SINCE BEGINNING OF SIMULATION =   80820.00    D   
 .....................................................................

                     CUMULATIVE MASS BUDGETS AT END OF TRANSPORT STEP  219, TIME STEP    1, STRESS PERIOD    3
                     -----------------------------------------------------------------------------------------

                                                             IN                           OUT
                                                      ----------------             ----------------
                               CONSTANT CONCENTRATION:    0.000000                    0.000000    
                                        CONSTANT HEAD:    1008.820                   -560.2542    
                                               STREAM:    0.000000                   -448.5713    
                               MASS STOR (FLOW MODEL):   0.5161509E-02              -0.6986623E-07
                                MASS STORAGE (SOLUTE):    0.000000                    0.000000    
                            ---------------------------------------------------------------------------
                                              [TOTAL]:    1008.825     KG            -1008.826     KG  

                                                          NET (IN - OUT):  -0.2441406E-03
                                                   DISCREPANCY (PERCENT):  -0.2420048E-04
     2 CALLS TO GCG PACKAGE FOR TRANSPORT TIME STEP   220 IN FLOW TIME STEP     1 STRESS PERIOD     3
      2 TOTAL ITERATIONS
  MAXIMUM CONCENTRATION CHANGES FOR EACH ITERATION:
  MAX. CHANGE LAYER,ROW,COL MAX. CHANGE LAYER,ROW,COL MAX. CHANGE LAYER,ROW,COL MAX. CHANGE LAYER,ROW,COL MAX. CHANGE LAYER,ROW,COL
 ------------------------------------------------------------------------------------------------------------------------------------
    0.000     (  1,  1,  1)   0.000     (  1,  1,  1)


                     STREAM MASS BUDGETS AT END OF TRANSPORT STEP  220, TIME STEP    1, STRESS PERIOD    3 FOR COMPONENT   1
                     -------------------------------------------------------------------------------------------------------

                                         CUMULATIVE MASS [M]                                     MASS FOR THIS TIME STEP [M]
                                         -------------------                                    --------------
                      STREAM DEPLETION =   1924.780                          STREAM DEPLETION =  0.4303040E-02
                      INFLOW TO STREAM =   4785.755                          INFLOW TO STREAM =   8.325000    
                          GW TO STREAM =   449.5704                              GW TO STREAM =  0.9990391    
                         PRECIPITATION =   0.000000                             PRECIPITATION =   0.000000    
                                RUNOFF =   0.000000                                    RUNOFF =   0.000000    
                CONSTANT CONCENTRATION =   0.000000                    CONSTANT CONCENTRATION =   0.000000    
                             MASS GAIN =   0.000000                                 MASS GAIN =   0.000000    
                                         -------------------                                    --------------
                              TOTAL IN =   7160.105                                  TOTAL IN =   9.328341    

                   STREAM ACCUMULATION =   1924.828                       STREAM ACCUMULATION =  0.7564481E-05
                        STREAM OUTFLOW =   5235.275                            STREAM OUTFLOW =   9.328337    
                          STREAM TO GW =   0.000000                              STREAM TO GW =   0.000000    
                CONSTANT CONCENTRATION =   0.000000                    CONSTANT CONCENTRATION =   0.000000    
                           EVAPORATION =   0.000000                               EVAPORATION =   0.000000    
                             MASS LOSS =   0.000000                                 MASS LOSS =   0.000000    
                                         -------------------                                    --------------
                             TOTAL OUT =   7160.104                                 TOTAL OUT =   9.328344    

                        NET (IN - OUT) =  0.1953125E-02                        NET (IN - OUT) = -0.2861023E-05
                 DISCREPANCY (PERCENT) =  0.2727788E-04                 DISCREPANCY (PERCENT) = -0.3067022E-04
                                              FLOW ERR (QIN-QOUT-DV) = -0.9536743E-06 [L3/T]




 >>>>>>>>>>>>>>>>>>>>>>>>>>>>>>>>>>>>>>>>>>>>>>>>>>>>>>>FOR COMPONENT NO. 01<<<<<<<<<<<<<<<<<<<<<<<<<<<<<<<<<<<<<<<<<<<<<<<<<<<<<<<


                                            -------------------------------------------
                                                      TRANSPORT STEP NO.  220
                                            -------------------------------------------

 TOTAL ELAPSED TIME SINCE BEGINNING OF SIMULATION =   81000.00    D   
 .....................................................................

                     CUMULATIVE MASS BUDGETS AT END OF TRANSPORT STEP  220, TIME STEP    1, STRESS PERIOD    3
                     -----------------------------------------------------------------------------------------

                                                             IN                           OUT
                                                      ----------------             ----------------
                               CONSTANT CONCENTRATION:    0.000000                    0.000000    
                                        CONSTANT HEAD:    1011.067                   -561.5020    
                                               STREAM:    0.000000                   -449.5704    
                               MASS STOR (FLOW MODEL):   0.5161509E-02              -0.6986623E-07
                                MASS STORAGE (SOLUTE):    0.000000                    0.000000    
                            ---------------------------------------------------------------------------
                                              [TOTAL]:    1011.072     KG            -1011.072     KG  

                                                          NET (IN - OUT):  -0.2441406E-03
                                                   DISCREPANCY (PERCENT):  -0.2414670E-04
     2 CALLS TO GCG PACKAGE FOR TRANSPORT TIME STEP   221 IN FLOW TIME STEP     1 STRESS PERIOD     3
      2 TOTAL ITERATIONS
  MAXIMUM CONCENTRATION CHANGES FOR EACH ITERATION:
  MAX. CHANGE LAYER,ROW,COL MAX. CHANGE LAYER,ROW,COL MAX. CHANGE LAYER,ROW,COL MAX. CHANGE LAYER,ROW,COL MAX. CHANGE LAYER,ROW,COL
 ------------------------------------------------------------------------------------------------------------------------------------
    0.000     (  1,  1,  1)   0.000     (  1,  1,  1)


                     STREAM MASS BUDGETS AT END OF TRANSPORT STEP  221, TIME STEP    1, STRESS PERIOD    3 FOR COMPONENT   1
                     -------------------------------------------------------------------------------------------------------

                                         CUMULATIVE MASS [M]                                     MASS FOR THIS TIME STEP [M]
                                         -------------------                                    --------------
                      STREAM DEPLETION =   1924.784                          STREAM DEPLETION =  0.3954730E-02
                      INFLOW TO STREAM =   4794.081                          INFLOW TO STREAM =   8.325000    
                          GW TO STREAM =   450.5694                              GW TO STREAM =  0.9990391    
                         PRECIPITATION =   0.000000                             PRECIPITATION =   0.000000    
                                RUNOFF =   0.000000                                    RUNOFF =   0.000000    
                CONSTANT CONCENTRATION =   0.000000                    CONSTANT CONCENTRATION =   0.000000    
                             MASS GAIN =   0.000000                                 MASS GAIN =   0.000000    
                                         -------------------                                    --------------
                              TOTAL IN =   7169.434                                  TOTAL IN =   9.327993    

                   STREAM ACCUMULATION =   1924.828                       STREAM ACCUMULATION =  0.7260626E-05
                        STREAM OUTFLOW =   5244.604                            STREAM OUTFLOW =   9.327989    
                          STREAM TO GW =   0.000000                              STREAM TO GW =   0.000000    
                CONSTANT CONCENTRATION =   0.000000                    CONSTANT CONCENTRATION =   0.000000    
                           EVAPORATION =   0.000000                               EVAPORATION =   0.000000    
                             MASS LOSS =   0.000000                                 MASS LOSS =   0.000000    
                                         -------------------                                    --------------
                             TOTAL OUT =   7169.432                                 TOTAL OUT =   9.327996    

                        NET (IN - OUT) =  0.1953125E-02                        NET (IN - OUT) = -0.2861023E-05
                 DISCREPANCY (PERCENT) =  0.2724239E-04                 DISCREPANCY (PERCENT) = -0.3067136E-04
                                              FLOW ERR (QIN-QOUT-DV) = -0.9536743E-06 [L3/T]




 >>>>>>>>>>>>>>>>>>>>>>>>>>>>>>>>>>>>>>>>>>>>>>>>>>>>>>>FOR COMPONENT NO. 01<<<<<<<<<<<<<<<<<<<<<<<<<<<<<<<<<<<<<<<<<<<<<<<<<<<<<<<


                                            -------------------------------------------
                                                      TRANSPORT STEP NO.  221
                                            -------------------------------------------

 TOTAL ELAPSED TIME SINCE BEGINNING OF SIMULATION =   81180.00    D   
 .....................................................................

                     CUMULATIVE MASS BUDGETS AT END OF TRANSPORT STEP  221, TIME STEP    1, STRESS PERIOD    3
                     -----------------------------------------------------------------------------------------

                                                             IN                           OUT
                                                      ----------------             ----------------
                               CONSTANT CONCENTRATION:    0.000000                    0.000000    
                                        CONSTANT HEAD:    1013.314                   -562.7498    
                                               STREAM:    0.000000                   -450.5694    
                               MASS STOR (FLOW MODEL):   0.5161509E-02              -0.6986623E-07
                                MASS STORAGE (SOLUTE):    0.000000                    0.000000    
                            ---------------------------------------------------------------------------
                                              [TOTAL]:    1013.319     KG            -1013.319     KG  

                                                          NET (IN - OUT):  -0.2441406E-03
                                                   DISCREPANCY (PERCENT):  -0.2409316E-04
     2 CALLS TO GCG PACKAGE FOR TRANSPORT TIME STEP   222 IN FLOW TIME STEP     1 STRESS PERIOD     3
      2 TOTAL ITERATIONS
  MAXIMUM CONCENTRATION CHANGES FOR EACH ITERATION:
  MAX. CHANGE LAYER,ROW,COL MAX. CHANGE LAYER,ROW,COL MAX. CHANGE LAYER,ROW,COL MAX. CHANGE LAYER,ROW,COL MAX. CHANGE LAYER,ROW,COL
 ------------------------------------------------------------------------------------------------------------------------------------
    0.000     (  1,  1,  1)   0.000     (  1,  1,  1)


                     STREAM MASS BUDGETS AT END OF TRANSPORT STEP  222, TIME STEP    1, STRESS PERIOD    3 FOR COMPONENT   1
                     -------------------------------------------------------------------------------------------------------

                                         CUMULATIVE MASS [M]                                     MASS FOR THIS TIME STEP [M]
                                         -------------------                                    --------------
                      STREAM DEPLETION =   1924.787                          STREAM DEPLETION =  0.3634376E-02
                      INFLOW TO STREAM =   4802.406                          INFLOW TO STREAM =   8.325000    
                          GW TO STREAM =   451.5685                              GW TO STREAM =  0.9990391    
                         PRECIPITATION =   0.000000                             PRECIPITATION =   0.000000    
                                RUNOFF =   0.000000                                    RUNOFF =   0.000000    
                CONSTANT CONCENTRATION =   0.000000                    CONSTANT CONCENTRATION =   0.000000    
                             MASS GAIN =   0.000000                                 MASS GAIN =   0.000000    
                                         -------------------                                    --------------
                              TOTAL IN =   7178.762                                  TOTAL IN =   9.327673    

                   STREAM ACCUMULATION =   1924.828                       STREAM ACCUMULATION =  0.6968944E-05
                        STREAM OUTFLOW =   5253.931                            STREAM OUTFLOW =   9.327668    
                          STREAM TO GW =   0.000000                              STREAM TO GW =   0.000000    
                CONSTANT CONCENTRATION =   0.000000                    CONSTANT CONCENTRATION =   0.000000    
                           EVAPORATION =   0.000000                               EVAPORATION =   0.000000    
                             MASS LOSS =   0.000000                                 MASS LOSS =   0.000000    
                                         -------------------                                    --------------
                             TOTAL OUT =   7178.759                                 TOTAL OUT =   9.327675    

                        NET (IN - OUT) =  0.2441406E-02                        NET (IN - OUT) = -0.1907349E-05
                 DISCREPANCY (PERCENT) =  0.3400874E-04                 DISCREPANCY (PERCENT) = -0.2044828E-04
                                              FLOW ERR (QIN-QOUT-DV) = -0.9536743E-06 [L3/T]




 >>>>>>>>>>>>>>>>>>>>>>>>>>>>>>>>>>>>>>>>>>>>>>>>>>>>>>>FOR COMPONENT NO. 01<<<<<<<<<<<<<<<<<<<<<<<<<<<<<<<<<<<<<<<<<<<<<<<<<<<<<<<


                                            -------------------------------------------
                                                      TRANSPORT STEP NO.  222
                                            -------------------------------------------

 TOTAL ELAPSED TIME SINCE BEGINNING OF SIMULATION =   81360.00    D   
 .....................................................................

                     CUMULATIVE MASS BUDGETS AT END OF TRANSPORT STEP  222, TIME STEP    1, STRESS PERIOD    3
                     -----------------------------------------------------------------------------------------

                                                             IN                           OUT
                                                      ----------------             ----------------
                               CONSTANT CONCENTRATION:    0.000000                    0.000000    
                                        CONSTANT HEAD:    1015.561                   -563.9976    
                                               STREAM:    0.000000                   -451.5685    
                               MASS STOR (FLOW MODEL):   0.5161509E-02              -0.6986623E-07
                                MASS STORAGE (SOLUTE):    0.000000                    0.000000    
                            ---------------------------------------------------------------------------
                                              [TOTAL]:    1015.566     KG            -1015.566     KG  

                                                          NET (IN - OUT):  -0.3051758E-03
                                                   DISCREPANCY (PERCENT):  -0.3004982E-04
     2 CALLS TO GCG PACKAGE FOR TRANSPORT TIME STEP   223 IN FLOW TIME STEP     1 STRESS PERIOD     3
      2 TOTAL ITERATIONS
  MAXIMUM CONCENTRATION CHANGES FOR EACH ITERATION:
  MAX. CHANGE LAYER,ROW,COL MAX. CHANGE LAYER,ROW,COL MAX. CHANGE LAYER,ROW,COL MAX. CHANGE LAYER,ROW,COL MAX. CHANGE LAYER,ROW,COL
 ------------------------------------------------------------------------------------------------------------------------------------
    0.000     (  1,  1,  1)   0.000     (  1,  1,  1)


                     STREAM MASS BUDGETS AT END OF TRANSPORT STEP  223, TIME STEP    1, STRESS PERIOD    3 FOR COMPONENT   1
                     -------------------------------------------------------------------------------------------------------

                                         CUMULATIVE MASS [M]                                     MASS FOR THIS TIME STEP [M]
                                         -------------------                                    --------------
                      STREAM DEPLETION =   1924.791                          STREAM DEPLETION =  0.3339758E-02
                      INFLOW TO STREAM =   4810.731                          INFLOW TO STREAM =   8.325000    
                          GW TO STREAM =   452.5675                              GW TO STREAM =  0.9990391    
                         PRECIPITATION =   0.000000                             PRECIPITATION =   0.000000    
                                RUNOFF =   0.000000                                    RUNOFF =   0.000000    
                CONSTANT CONCENTRATION =   0.000000                    CONSTANT CONCENTRATION =   0.000000    
                             MASS GAIN =   0.000000                                 MASS GAIN =   0.000000    
                                         -------------------                                    --------------
                              TOTAL IN =   7188.089                                  TOTAL IN =   9.327378    

                   STREAM ACCUMULATION =   1924.828                       STREAM ACCUMULATION =  0.6688949E-05
                        STREAM OUTFLOW =   5263.258                            STREAM OUTFLOW =   9.327374    
                          STREAM TO GW =   0.000000                              STREAM TO GW =   0.000000    
                CONSTANT CONCENTRATION =   0.000000                    CONSTANT CONCENTRATION =   0.000000    
                           EVAPORATION =   0.000000                               EVAPORATION =   0.000000    
                             MASS LOSS =   0.000000                                 MASS LOSS =   0.000000    
                                         -------------------                                    --------------
                             TOTAL OUT =   7188.086                                 TOTAL OUT =   9.327380    

                        NET (IN - OUT) =  0.2441406E-02                        NET (IN - OUT) = -0.1907349E-05
                 DISCREPANCY (PERCENT) =  0.3396461E-04                 DISCREPANCY (PERCENT) = -0.2044892E-04
                                              FLOW ERR (QIN-QOUT-DV) = -0.9536743E-06 [L3/T]




 >>>>>>>>>>>>>>>>>>>>>>>>>>>>>>>>>>>>>>>>>>>>>>>>>>>>>>>FOR COMPONENT NO. 01<<<<<<<<<<<<<<<<<<<<<<<<<<<<<<<<<<<<<<<<<<<<<<<<<<<<<<<


                                            -------------------------------------------
                                                      TRANSPORT STEP NO.  223
                                            -------------------------------------------

 TOTAL ELAPSED TIME SINCE BEGINNING OF SIMULATION =   81540.00    D   
 .....................................................................

                     CUMULATIVE MASS BUDGETS AT END OF TRANSPORT STEP  223, TIME STEP    1, STRESS PERIOD    3
                     -----------------------------------------------------------------------------------------

                                                             IN                           OUT
                                                      ----------------             ----------------
                               CONSTANT CONCENTRATION:    0.000000                    0.000000    
                                        CONSTANT HEAD:    1017.807                   -565.2454    
                                               STREAM:    0.000000                   -452.5675    
                               MASS STOR (FLOW MODEL):   0.5161509E-02              -0.6986623E-07
                                MASS STORAGE (SOLUTE):    0.000000                    0.000000    
                            ---------------------------------------------------------------------------
                                              [TOTAL]:    1017.813     KG            -1017.813     KG  

                                                          NET (IN - OUT):  -0.3662109E-03
                                                   DISCREPANCY (PERCENT):  -0.3598019E-04
     2 CALLS TO GCG PACKAGE FOR TRANSPORT TIME STEP   224 IN FLOW TIME STEP     1 STRESS PERIOD     3
      2 TOTAL ITERATIONS
  MAXIMUM CONCENTRATION CHANGES FOR EACH ITERATION:
  MAX. CHANGE LAYER,ROW,COL MAX. CHANGE LAYER,ROW,COL MAX. CHANGE LAYER,ROW,COL MAX. CHANGE LAYER,ROW,COL MAX. CHANGE LAYER,ROW,COL
 ------------------------------------------------------------------------------------------------------------------------------------
    0.000     (  1,  1,  1)   0.000     (  1,  1,  1)


                     STREAM MASS BUDGETS AT END OF TRANSPORT STEP  224, TIME STEP    1, STRESS PERIOD    3 FOR COMPONENT   1
                     -------------------------------------------------------------------------------------------------------

                                         CUMULATIVE MASS [M]                                     MASS FOR THIS TIME STEP [M]
                                         -------------------                                    --------------
                      STREAM DEPLETION =   1924.794                          STREAM DEPLETION =  0.3068834E-02
                      INFLOW TO STREAM =   4819.056                          INFLOW TO STREAM =   8.325000    
                          GW TO STREAM =   453.5666                              GW TO STREAM =  0.9990391    
                         PRECIPITATION =   0.000000                             PRECIPITATION =   0.000000    
                                RUNOFF =   0.000000                                    RUNOFF =   0.000000    
                CONSTANT CONCENTRATION =   0.000000                    CONSTANT CONCENTRATION =   0.000000    
                             MASS GAIN =   0.000000                                 MASS GAIN =   0.000000    
                                         -------------------                                    --------------
                              TOTAL IN =   7197.416                                  TOTAL IN =   9.327107    

                   STREAM ACCUMULATION =   1924.828                       STREAM ACCUMULATION =  0.6420177E-05
                        STREAM OUTFLOW =   5272.585                            STREAM OUTFLOW =   9.327104    
                          STREAM TO GW =   0.000000                              STREAM TO GW =   0.000000    
                CONSTANT CONCENTRATION =   0.000000                    CONSTANT CONCENTRATION =   0.000000    
                           EVAPORATION =   0.000000                               EVAPORATION =   0.000000    
                             MASS LOSS =   0.000000                                 MASS LOSS =   0.000000    
                                         -------------------                                    --------------
                             TOTAL OUT =   7197.414                                 TOTAL OUT =   9.327110    

                        NET (IN - OUT) =  0.2441406E-02                        NET (IN - OUT) = -0.2861023E-05
                 DISCREPANCY (PERCENT) =  0.3392060E-04                 DISCREPANCY (PERCENT) = -0.3067428E-04
                                              FLOW ERR (QIN-QOUT-DV) = -0.9536743E-06 [L3/T]




 >>>>>>>>>>>>>>>>>>>>>>>>>>>>>>>>>>>>>>>>>>>>>>>>>>>>>>>FOR COMPONENT NO. 01<<<<<<<<<<<<<<<<<<<<<<<<<<<<<<<<<<<<<<<<<<<<<<<<<<<<<<<


                                            -------------------------------------------
                                                      TRANSPORT STEP NO.  224
                                            -------------------------------------------

 TOTAL ELAPSED TIME SINCE BEGINNING OF SIMULATION =   81720.00    D   
 .....................................................................

                     CUMULATIVE MASS BUDGETS AT END OF TRANSPORT STEP  224, TIME STEP    1, STRESS PERIOD    3
                     -----------------------------------------------------------------------------------------

                                                             IN                           OUT
                                                      ----------------             ----------------
                               CONSTANT CONCENTRATION:    0.000000                    0.000000    
                                        CONSTANT HEAD:    1020.054                   -566.4932    
                                               STREAM:    0.000000                   -453.5666    
                               MASS STOR (FLOW MODEL):   0.5161509E-02              -0.6986623E-07
                                MASS STORAGE (SOLUTE):    0.000000                    0.000000    
                            ---------------------------------------------------------------------------
                                              [TOTAL]:    1020.059     KG            -1020.060     KG  

                                                          NET (IN - OUT):  -0.3662109E-03
                                                   DISCREPANCY (PERCENT):  -0.3590094E-04
     2 CALLS TO GCG PACKAGE FOR TRANSPORT TIME STEP   225 IN FLOW TIME STEP     1 STRESS PERIOD     3
      2 TOTAL ITERATIONS
  MAXIMUM CONCENTRATION CHANGES FOR EACH ITERATION:
  MAX. CHANGE LAYER,ROW,COL MAX. CHANGE LAYER,ROW,COL MAX. CHANGE LAYER,ROW,COL MAX. CHANGE LAYER,ROW,COL MAX. CHANGE LAYER,ROW,COL
 ------------------------------------------------------------------------------------------------------------------------------------
    0.000     (  1,  1,  1)   0.000     (  1,  1,  1)


                     STREAM MASS BUDGETS AT END OF TRANSPORT STEP  225, TIME STEP    1, STRESS PERIOD    3 FOR COMPONENT   1
                     -------------------------------------------------------------------------------------------------------

                                         CUMULATIVE MASS [M]                                     MASS FOR THIS TIME STEP [M]
                                         -------------------                                    --------------
                      STREAM DEPLETION =   1924.796                          STREAM DEPLETION =  0.2819719E-02
                      INFLOW TO STREAM =   4827.381                          INFLOW TO STREAM =   8.325000    
                          GW TO STREAM =   454.5656                              GW TO STREAM =  0.9990391    
                         PRECIPITATION =   0.000000                             PRECIPITATION =   0.000000    
                                RUNOFF =   0.000000                                    RUNOFF =   0.000000    
                CONSTANT CONCENTRATION =   0.000000                    CONSTANT CONCENTRATION =   0.000000    
                             MASS GAIN =   0.000000                                 MASS GAIN =   0.000000    
                                         -------------------                                    --------------
                              TOTAL IN =   7206.743                                  TOTAL IN =   9.326859    

                   STREAM ACCUMULATION =   1924.828                       STREAM ACCUMULATION =  0.6162174E-05
                        STREAM OUTFLOW =   5281.912                            STREAM OUTFLOW =   9.326855    
                          STREAM TO GW =   0.000000                              STREAM TO GW =   0.000000    
                CONSTANT CONCENTRATION =   0.000000                    CONSTANT CONCENTRATION =   0.000000    
                           EVAPORATION =   0.000000                               EVAPORATION =   0.000000    
                             MASS LOSS =   0.000000                                 MASS LOSS =   0.000000    
                                         -------------------                                    --------------
                             TOTAL OUT =   7206.740                                 TOTAL OUT =   9.326860    

                        NET (IN - OUT) =  0.2929688E-02                        NET (IN - OUT) = -0.1907349E-05
                 DISCREPANCY (PERCENT) =  0.4065204E-04                 DISCREPANCY (PERCENT) = -0.2045006E-04
                                              FLOW ERR (QIN-QOUT-DV) = -0.9536743E-06 [L3/T]




 >>>>>>>>>>>>>>>>>>>>>>>>>>>>>>>>>>>>>>>>>>>>>>>>>>>>>>>FOR COMPONENT NO. 01<<<<<<<<<<<<<<<<<<<<<<<<<<<<<<<<<<<<<<<<<<<<<<<<<<<<<<<


                                            -------------------------------------------
                                                      TRANSPORT STEP NO.  225
                                            -------------------------------------------

 TOTAL ELAPSED TIME SINCE BEGINNING OF SIMULATION =   81900.00    D   
 .....................................................................

                     CUMULATIVE MASS BUDGETS AT END OF TRANSPORT STEP  225, TIME STEP    1, STRESS PERIOD    3
                     -----------------------------------------------------------------------------------------

                                                             IN                           OUT
                                                      ----------------             ----------------
                               CONSTANT CONCENTRATION:    0.000000                    0.000000    
                                        CONSTANT HEAD:    1022.301                   -567.7410    
                                               STREAM:    0.000000                   -454.5656    
                               MASS STOR (FLOW MODEL):   0.5161509E-02              -0.6986623E-07
                                MASS STORAGE (SOLUTE):    0.000000                    0.000000    
                            ---------------------------------------------------------------------------
                                              [TOTAL]:    1022.306     KG            -1022.307     KG  

                                                          NET (IN - OUT):  -0.3662109E-03
                                                   DISCREPANCY (PERCENT):  -0.3582203E-04
     2 CALLS TO GCG PACKAGE FOR TRANSPORT TIME STEP   226 IN FLOW TIME STEP     1 STRESS PERIOD     3
      2 TOTAL ITERATIONS
  MAXIMUM CONCENTRATION CHANGES FOR EACH ITERATION:
  MAX. CHANGE LAYER,ROW,COL MAX. CHANGE LAYER,ROW,COL MAX. CHANGE LAYER,ROW,COL MAX. CHANGE LAYER,ROW,COL MAX. CHANGE LAYER,ROW,COL
 ------------------------------------------------------------------------------------------------------------------------------------
    0.000     (  1,  1,  1)   0.000     (  1,  1,  1)


                     STREAM MASS BUDGETS AT END OF TRANSPORT STEP  226, TIME STEP    1, STRESS PERIOD    3 FOR COMPONENT   1
                     -------------------------------------------------------------------------------------------------------

                                         CUMULATIVE MASS [M]                                     MASS FOR THIS TIME STEP [M]
                                         -------------------                                    --------------
                      STREAM DEPLETION =   1924.799                          STREAM DEPLETION =  0.2590675E-02
                      INFLOW TO STREAM =   4835.707                          INFLOW TO STREAM =   8.325000    
                          GW TO STREAM =   455.5647                              GW TO STREAM =  0.9990391    
                         PRECIPITATION =   0.000000                             PRECIPITATION =   0.000000    
                                RUNOFF =   0.000000                                    RUNOFF =   0.000000    
                CONSTANT CONCENTRATION =   0.000000                    CONSTANT CONCENTRATION =   0.000000    
                             MASS GAIN =   0.000000                                 MASS GAIN =   0.000000    
                                         -------------------                                    --------------
                              TOTAL IN =   7216.070                                  TOTAL IN =   9.326630    

                   STREAM ACCUMULATION =   1924.828                       STREAM ACCUMULATION =  0.5914512E-05
                        STREAM OUTFLOW =   5291.239                            STREAM OUTFLOW =   9.326626    
                          STREAM TO GW =   0.000000                              STREAM TO GW =   0.000000    
                CONSTANT CONCENTRATION =   0.000000                    CONSTANT CONCENTRATION =   0.000000    
                           EVAPORATION =   0.000000                               EVAPORATION =   0.000000    
                             MASS LOSS =   0.000000                                 MASS LOSS =   0.000000    
                                         -------------------                                    --------------
                             TOTAL OUT =   7216.067                                 TOTAL OUT =   9.326632    

                        NET (IN - OUT) =  0.3417969E-02                        NET (IN - OUT) = -0.1907349E-05
                 DISCREPANCY (PERCENT) =  0.4736608E-04                 DISCREPANCY (PERCENT) = -0.2045056E-04
                                              FLOW ERR (QIN-QOUT-DV) = -0.9536743E-06 [L3/T]




 >>>>>>>>>>>>>>>>>>>>>>>>>>>>>>>>>>>>>>>>>>>>>>>>>>>>>>>FOR COMPONENT NO. 01<<<<<<<<<<<<<<<<<<<<<<<<<<<<<<<<<<<<<<<<<<<<<<<<<<<<<<<


                                            -------------------------------------------
                                                      TRANSPORT STEP NO.  226
                                            -------------------------------------------

 TOTAL ELAPSED TIME SINCE BEGINNING OF SIMULATION =   82080.00    D   
 .....................................................................

                     CUMULATIVE MASS BUDGETS AT END OF TRANSPORT STEP  226, TIME STEP    1, STRESS PERIOD    3
                     -----------------------------------------------------------------------------------------

                                                             IN                           OUT
                                                      ----------------             ----------------
                               CONSTANT CONCENTRATION:    0.000000                    0.000000    
                                        CONSTANT HEAD:    1024.548                   -568.9888    
                                               STREAM:    0.000000                   -455.5647    
                               MASS STOR (FLOW MODEL):   0.5161509E-02              -0.6986623E-07
                                MASS STORAGE (SOLUTE):    0.000000                    0.000000    
                            ---------------------------------------------------------------------------
                                              [TOTAL]:    1024.553     KG            -1024.553     KG  

                                                          NET (IN - OUT):  -0.3662109E-03
                                                   DISCREPANCY (PERCENT):  -0.3574348E-04
     2 CALLS TO GCG PACKAGE FOR TRANSPORT TIME STEP   227 IN FLOW TIME STEP     1 STRESS PERIOD     3
      2 TOTAL ITERATIONS
  MAXIMUM CONCENTRATION CHANGES FOR EACH ITERATION:
  MAX. CHANGE LAYER,ROW,COL MAX. CHANGE LAYER,ROW,COL MAX. CHANGE LAYER,ROW,COL MAX. CHANGE LAYER,ROW,COL MAX. CHANGE LAYER,ROW,COL
 ------------------------------------------------------------------------------------------------------------------------------------
    0.000     (  1,  1,  1)   0.000     (  1,  1,  1)


                     STREAM MASS BUDGETS AT END OF TRANSPORT STEP  227, TIME STEP    1, STRESS PERIOD    3 FOR COMPONENT   1
                     -------------------------------------------------------------------------------------------------------

                                         CUMULATIVE MASS [M]                                     MASS FOR THIS TIME STEP [M]
                                         -------------------                                    --------------
                      STREAM DEPLETION =   1924.801                          STREAM DEPLETION =  0.2380104E-02
                      INFLOW TO STREAM =   4844.032                          INFLOW TO STREAM =   8.325000    
                          GW TO STREAM =   456.5638                              GW TO STREAM =  0.9990391    
                         PRECIPITATION =   0.000000                             PRECIPITATION =   0.000000    
                                RUNOFF =   0.000000                                    RUNOFF =   0.000000    
                CONSTANT CONCENTRATION =   0.000000                    CONSTANT CONCENTRATION =   0.000000    
                             MASS GAIN =   0.000000                                 MASS GAIN =   0.000000    
                                         -------------------                                    --------------
                              TOTAL IN =   7225.396                                  TOTAL IN =   9.326419    

                   STREAM ACCUMULATION =   1924.828                       STREAM ACCUMULATION =  0.5676783E-05
                        STREAM OUTFLOW =   5300.565                            STREAM OUTFLOW =   9.326415    
                          STREAM TO GW =   0.000000                              STREAM TO GW =   0.000000    
                CONSTANT CONCENTRATION =   0.000000                    CONSTANT CONCENTRATION =   0.000000    
                           EVAPORATION =   0.000000                               EVAPORATION =   0.000000    
                             MASS LOSS =   0.000000                                 MASS LOSS =   0.000000    
                                         -------------------                                    --------------
                             TOTAL OUT =   7225.393                                 TOTAL OUT =   9.326421    

                        NET (IN - OUT) =  0.3417969E-02                        NET (IN - OUT) = -0.1907349E-05
                 DISCREPANCY (PERCENT) =  0.4730494E-04                 DISCREPANCY (PERCENT) = -0.2045103E-04
                                              FLOW ERR (QIN-QOUT-DV) = -0.9536743E-06 [L3/T]




 >>>>>>>>>>>>>>>>>>>>>>>>>>>>>>>>>>>>>>>>>>>>>>>>>>>>>>>FOR COMPONENT NO. 01<<<<<<<<<<<<<<<<<<<<<<<<<<<<<<<<<<<<<<<<<<<<<<<<<<<<<<<


                                            -------------------------------------------
                                                      TRANSPORT STEP NO.  227
                                            -------------------------------------------

 TOTAL ELAPSED TIME SINCE BEGINNING OF SIMULATION =   82260.00    D   
 .....................................................................

                     CUMULATIVE MASS BUDGETS AT END OF TRANSPORT STEP  227, TIME STEP    1, STRESS PERIOD    3
                     -----------------------------------------------------------------------------------------

                                                             IN                           OUT
                                                      ----------------             ----------------
                               CONSTANT CONCENTRATION:    0.000000                    0.000000    
                                        CONSTANT HEAD:    1026.795                   -570.2366    
                                               STREAM:    0.000000                   -456.5638    
                               MASS STOR (FLOW MODEL):   0.5161509E-02              -0.6986623E-07
                                MASS STORAGE (SOLUTE):    0.000000                    0.000000    
                            ---------------------------------------------------------------------------
                                              [TOTAL]:    1026.800     KG            -1026.800     KG  

                                                          NET (IN - OUT):  -0.4882812E-03
                                                   DISCREPANCY (PERCENT):  -0.4755368E-04
     2 CALLS TO GCG PACKAGE FOR TRANSPORT TIME STEP   228 IN FLOW TIME STEP     1 STRESS PERIOD     3
      2 TOTAL ITERATIONS
  MAXIMUM CONCENTRATION CHANGES FOR EACH ITERATION:
  MAX. CHANGE LAYER,ROW,COL MAX. CHANGE LAYER,ROW,COL MAX. CHANGE LAYER,ROW,COL MAX. CHANGE LAYER,ROW,COL MAX. CHANGE LAYER,ROW,COL
 ------------------------------------------------------------------------------------------------------------------------------------
    0.000     (  1,  1,  1)   0.000     (  1,  1,  1)


                     STREAM MASS BUDGETS AT END OF TRANSPORT STEP  228, TIME STEP    1, STRESS PERIOD    3 FOR COMPONENT   1
                     -------------------------------------------------------------------------------------------------------

                                         CUMULATIVE MASS [M]                                     MASS FOR THIS TIME STEP [M]
                                         -------------------                                    --------------
                      STREAM DEPLETION =   1924.803                          STREAM DEPLETION =  0.2186529E-02
                      INFLOW TO STREAM =   4852.357                          INFLOW TO STREAM =   8.325000    
                          GW TO STREAM =   457.5628                              GW TO STREAM =  0.9990391    
                         PRECIPITATION =   0.000000                             PRECIPITATION =   0.000000    
                                RUNOFF =   0.000000                                    RUNOFF =   0.000000    
                CONSTANT CONCENTRATION =   0.000000                    CONSTANT CONCENTRATION =   0.000000    
                             MASS GAIN =   0.000000                                 MASS GAIN =   0.000000    
                                         -------------------                                    --------------
                              TOTAL IN =   7234.723                                  TOTAL IN =   9.326225    

                   STREAM ACCUMULATION =   1924.828                       STREAM ACCUMULATION =  0.5448613E-05
                        STREAM OUTFLOW =   5309.891                            STREAM OUTFLOW =   9.326222    
                          STREAM TO GW =   0.000000                              STREAM TO GW =   0.000000    
                CONSTANT CONCENTRATION =   0.000000                    CONSTANT CONCENTRATION =   0.000000    
                           EVAPORATION =   0.000000                               EVAPORATION =   0.000000    
                             MASS LOSS =   0.000000                                 MASS LOSS =   0.000000    
                                         -------------------                                    --------------
                             TOTAL OUT =   7234.719                                 TOTAL OUT =   9.326228    

                        NET (IN - OUT) =  0.3906250E-02                        NET (IN - OUT) = -0.2861023E-05
                 DISCREPANCY (PERCENT) =  0.5399310E-04                 DISCREPANCY (PERCENT) = -0.3067717E-04
                                              FLOW ERR (QIN-QOUT-DV) = -0.9536743E-06 [L3/T]




 >>>>>>>>>>>>>>>>>>>>>>>>>>>>>>>>>>>>>>>>>>>>>>>>>>>>>>>FOR COMPONENT NO. 01<<<<<<<<<<<<<<<<<<<<<<<<<<<<<<<<<<<<<<<<<<<<<<<<<<<<<<<


                                            -------------------------------------------
                                                      TRANSPORT STEP NO.  228
                                            -------------------------------------------

 TOTAL ELAPSED TIME SINCE BEGINNING OF SIMULATION =   82440.00    D   
 .....................................................................

                     CUMULATIVE MASS BUDGETS AT END OF TRANSPORT STEP  228, TIME STEP    1, STRESS PERIOD    3
                     -----------------------------------------------------------------------------------------

                                                             IN                           OUT
                                                      ----------------             ----------------
                               CONSTANT CONCENTRATION:    0.000000                    0.000000    
                                        CONSTANT HEAD:    1029.042                   -571.4844    
                                               STREAM:    0.000000                   -457.5628    
                               MASS STOR (FLOW MODEL):   0.5161509E-02              -0.6986623E-07
                                MASS STORAGE (SOLUTE):    0.000000                    0.000000    
                            ---------------------------------------------------------------------------
                                              [TOTAL]:    1029.047     KG            -1029.047     KG  

                                                          NET (IN - OUT):  -0.4882812E-03
                                                   DISCREPANCY (PERCENT):  -0.4744985E-04
     2 CALLS TO GCG PACKAGE FOR TRANSPORT TIME STEP   229 IN FLOW TIME STEP     1 STRESS PERIOD     3
      2 TOTAL ITERATIONS
  MAXIMUM CONCENTRATION CHANGES FOR EACH ITERATION:
  MAX. CHANGE LAYER,ROW,COL MAX. CHANGE LAYER,ROW,COL MAX. CHANGE LAYER,ROW,COL MAX. CHANGE LAYER,ROW,COL MAX. CHANGE LAYER,ROW,COL
 ------------------------------------------------------------------------------------------------------------------------------------
    0.000     (  1,  1,  1)   0.000     (  1,  1,  1)


                     STREAM MASS BUDGETS AT END OF TRANSPORT STEP  229, TIME STEP    1, STRESS PERIOD    3 FOR COMPONENT   1
                     -------------------------------------------------------------------------------------------------------

                                         CUMULATIVE MASS [M]                                     MASS FOR THIS TIME STEP [M]
                                         -------------------                                    --------------
                      STREAM DEPLETION =   1924.805                          STREAM DEPLETION =  0.2008594E-02
                      INFLOW TO STREAM =   4860.682                          INFLOW TO STREAM =   8.325000    
                          GW TO STREAM =   458.5619                              GW TO STREAM =  0.9990391    
                         PRECIPITATION =   0.000000                             PRECIPITATION =   0.000000    
                                RUNOFF =   0.000000                                    RUNOFF =   0.000000    
                CONSTANT CONCENTRATION =   0.000000                    CONSTANT CONCENTRATION =   0.000000    
                             MASS GAIN =   0.000000                                 MASS GAIN =   0.000000    
                                         -------------------                                    --------------
                              TOTAL IN =   7244.049                                  TOTAL IN =   9.326047    

                   STREAM ACCUMULATION =   1924.828                       STREAM ACCUMULATION =  0.5229677E-05
                        STREAM OUTFLOW =   5319.217                            STREAM OUTFLOW =   9.326044    
                          STREAM TO GW =   0.000000                              STREAM TO GW =   0.000000    
                CONSTANT CONCENTRATION =   0.000000                    CONSTANT CONCENTRATION =   0.000000    
                           EVAPORATION =   0.000000                               EVAPORATION =   0.000000    
                             MASS LOSS =   0.000000                                 MASS LOSS =   0.000000    
                                         -------------------                                    --------------
                             TOTAL OUT =   7244.045                                 TOTAL OUT =   9.326049    

                        NET (IN - OUT) =  0.3906250E-02                        NET (IN - OUT) = -0.1907349E-05
                 DISCREPANCY (PERCENT) =  0.5392358E-04                 DISCREPANCY (PERCENT) = -0.2045184E-04
                                              FLOW ERR (QIN-QOUT-DV) = -0.9536743E-06 [L3/T]




 >>>>>>>>>>>>>>>>>>>>>>>>>>>>>>>>>>>>>>>>>>>>>>>>>>>>>>>FOR COMPONENT NO. 01<<<<<<<<<<<<<<<<<<<<<<<<<<<<<<<<<<<<<<<<<<<<<<<<<<<<<<<


                                            -------------------------------------------
                                                      TRANSPORT STEP NO.  229
                                            -------------------------------------------

 TOTAL ELAPSED TIME SINCE BEGINNING OF SIMULATION =   82620.00    D   
 .....................................................................

                     CUMULATIVE MASS BUDGETS AT END OF TRANSPORT STEP  229, TIME STEP    1, STRESS PERIOD    3
                     -----------------------------------------------------------------------------------------

                                                             IN                           OUT
                                                      ----------------             ----------------
                               CONSTANT CONCENTRATION:    0.000000                    0.000000    
                                        CONSTANT HEAD:    1031.288                   -572.7322    
                                               STREAM:    0.000000                   -458.5619    
                               MASS STOR (FLOW MODEL):   0.5161509E-02              -0.6986623E-07
                                MASS STORAGE (SOLUTE):    0.000000                    0.000000    
                            ---------------------------------------------------------------------------
                                              [TOTAL]:    1031.294     KG            -1031.294     KG  

                                                          NET (IN - OUT):  -0.4882812E-03
                                                   DISCREPANCY (PERCENT):  -0.4734647E-04
     2 CALLS TO GCG PACKAGE FOR TRANSPORT TIME STEP   230 IN FLOW TIME STEP     1 STRESS PERIOD     3
      2 TOTAL ITERATIONS
  MAXIMUM CONCENTRATION CHANGES FOR EACH ITERATION:
  MAX. CHANGE LAYER,ROW,COL MAX. CHANGE LAYER,ROW,COL MAX. CHANGE LAYER,ROW,COL MAX. CHANGE LAYER,ROW,COL MAX. CHANGE LAYER,ROW,COL
 ------------------------------------------------------------------------------------------------------------------------------------
    0.000     (  1,  1,  1)   0.000     (  1,  1,  1)


                     STREAM MASS BUDGETS AT END OF TRANSPORT STEP  230, TIME STEP    1, STRESS PERIOD    3 FOR COMPONENT   1
                     -------------------------------------------------------------------------------------------------------

                                         CUMULATIVE MASS [M]                                     MASS FOR THIS TIME STEP [M]
                                         -------------------                                    --------------
                      STREAM DEPLETION =   1924.807                          STREAM DEPLETION =  0.1845045E-02
                      INFLOW TO STREAM =   4869.007                          INFLOW TO STREAM =   8.325000    
                          GW TO STREAM =   459.5609                              GW TO STREAM =  0.9990391    
                         PRECIPITATION =   0.000000                             PRECIPITATION =   0.000000    
                                RUNOFF =   0.000000                                    RUNOFF =   0.000000    
                CONSTANT CONCENTRATION =   0.000000                    CONSTANT CONCENTRATION =   0.000000    
                             MASS GAIN =   0.000000                                 MASS GAIN =   0.000000    
                                         -------------------                                    --------------
                              TOTAL IN =   7253.375                                  TOTAL IN =   9.325884    

                   STREAM ACCUMULATION =   1924.828                       STREAM ACCUMULATION =  0.5019555E-05
                        STREAM OUTFLOW =   5328.543                            STREAM OUTFLOW =   9.325881    
                          STREAM TO GW =   0.000000                              STREAM TO GW =   0.000000    
                CONSTANT CONCENTRATION =   0.000000                    CONSTANT CONCENTRATION =   0.000000    
                           EVAPORATION =   0.000000                               EVAPORATION =   0.000000    
                             MASS LOSS =   0.000000                                 MASS LOSS =   0.000000    
                                         -------------------                                    --------------
                             TOTAL OUT =   7253.371                                 TOTAL OUT =   9.325886    

                        NET (IN - OUT) =  0.4394531E-02                        NET (IN - OUT) = -0.1907349E-05
                 DISCREPANCY (PERCENT) =  0.6058604E-04                 DISCREPANCY (PERCENT) = -0.2045220E-04
                                              FLOW ERR (QIN-QOUT-DV) = -0.9536743E-06 [L3/T]




 >>>>>>>>>>>>>>>>>>>>>>>>>>>>>>>>>>>>>>>>>>>>>>>>>>>>>>>FOR COMPONENT NO. 01<<<<<<<<<<<<<<<<<<<<<<<<<<<<<<<<<<<<<<<<<<<<<<<<<<<<<<<


                                            -------------------------------------------
                                                      TRANSPORT STEP NO.  230
                                            -------------------------------------------

 TOTAL ELAPSED TIME SINCE BEGINNING OF SIMULATION =   82800.00    D   
 .....................................................................

                     CUMULATIVE MASS BUDGETS AT END OF TRANSPORT STEP  230, TIME STEP    1, STRESS PERIOD    3
                     -----------------------------------------------------------------------------------------

                                                             IN                           OUT
                                                      ----------------             ----------------
                               CONSTANT CONCENTRATION:    0.000000                    0.000000    
                                        CONSTANT HEAD:    1033.535                   -573.9800    
                                               STREAM:    0.000000                   -459.5609    
                               MASS STOR (FLOW MODEL):   0.5161509E-02              -0.6986623E-07
                                MASS STORAGE (SOLUTE):    0.000000                    0.000000    
                            ---------------------------------------------------------------------------
                                              [TOTAL]:    1033.540     KG            -1033.541     KG  

                                                          NET (IN - OUT):  -0.6103516E-03
                                                   DISCREPANCY (PERCENT):  -0.5905443E-04
     2 CALLS TO GCG PACKAGE FOR TRANSPORT TIME STEP   231 IN FLOW TIME STEP     1 STRESS PERIOD     3
      2 TOTAL ITERATIONS
  MAXIMUM CONCENTRATION CHANGES FOR EACH ITERATION:
  MAX. CHANGE LAYER,ROW,COL MAX. CHANGE LAYER,ROW,COL MAX. CHANGE LAYER,ROW,COL MAX. CHANGE LAYER,ROW,COL MAX. CHANGE LAYER,ROW,COL
 ------------------------------------------------------------------------------------------------------------------------------------
    0.000     (  1,  1,  1)   0.000     (  1,  1,  1)


                     STREAM MASS BUDGETS AT END OF TRANSPORT STEP  231, TIME STEP    1, STRESS PERIOD    3 FOR COMPONENT   1
                     -------------------------------------------------------------------------------------------------------

                                         CUMULATIVE MASS [M]                                     MASS FOR THIS TIME STEP [M]
                                         -------------------                                    --------------
                      STREAM DEPLETION =   1924.809                          STREAM DEPLETION =  0.1694731E-02
                      INFLOW TO STREAM =   4877.333                          INFLOW TO STREAM =   8.325000    
                          GW TO STREAM =   460.5600                              GW TO STREAM =  0.9990391    
                         PRECIPITATION =   0.000000                             PRECIPITATION =   0.000000    
                                RUNOFF =   0.000000                                    RUNOFF =   0.000000    
                CONSTANT CONCENTRATION =   0.000000                    CONSTANT CONCENTRATION =   0.000000    
                             MASS GAIN =   0.000000                                 MASS GAIN =   0.000000    
                                         -------------------                                    --------------
                              TOTAL IN =   7262.701                                  TOTAL IN =   9.325733    

                   STREAM ACCUMULATION =   1924.828                       STREAM ACCUMULATION =  0.4817859E-05
                        STREAM OUTFLOW =   5337.869                            STREAM OUTFLOW =   9.325731    
                          STREAM TO GW =   0.000000                              STREAM TO GW =   0.000000    
                CONSTANT CONCENTRATION =   0.000000                    CONSTANT CONCENTRATION =   0.000000    
                           EVAPORATION =   0.000000                               EVAPORATION =   0.000000    
                             MASS LOSS =   0.000000                                 MASS LOSS =   0.000000    
                                         -------------------                                    --------------
                             TOTAL OUT =   7262.697                                 TOTAL OUT =   9.325736    

                        NET (IN - OUT) =  0.4394531E-02                        NET (IN - OUT) = -0.2861023E-05
                 DISCREPANCY (PERCENT) =  0.6050824E-04                 DISCREPANCY (PERCENT) = -0.3067879E-04
                                              FLOW ERR (QIN-QOUT-DV) = -0.9536743E-06 [L3/T]




 >>>>>>>>>>>>>>>>>>>>>>>>>>>>>>>>>>>>>>>>>>>>>>>>>>>>>>>FOR COMPONENT NO. 01<<<<<<<<<<<<<<<<<<<<<<<<<<<<<<<<<<<<<<<<<<<<<<<<<<<<<<<


                                            -------------------------------------------
                                                      TRANSPORT STEP NO.  231
                                            -------------------------------------------

 TOTAL ELAPSED TIME SINCE BEGINNING OF SIMULATION =   82980.00    D   
 .....................................................................

                     CUMULATIVE MASS BUDGETS AT END OF TRANSPORT STEP  231, TIME STEP    1, STRESS PERIOD    3
                     -----------------------------------------------------------------------------------------

                                                             IN                           OUT
                                                      ----------------             ----------------
                               CONSTANT CONCENTRATION:    0.000000                    0.000000    
                                        CONSTANT HEAD:    1035.782                   -575.2278    
                                               STREAM:    0.000000                   -460.5600    
                               MASS STOR (FLOW MODEL):   0.5161509E-02              -0.6986623E-07
                                MASS STORAGE (SOLUTE):    0.000000                    0.000000    
                            ---------------------------------------------------------------------------
                                              [TOTAL]:    1035.787     KG            -1035.788     KG  

                                                          NET (IN - OUT):  -0.6103516E-03
                                                   DISCREPANCY (PERCENT):  -0.5892633E-04
     2 CALLS TO GCG PACKAGE FOR TRANSPORT TIME STEP   232 IN FLOW TIME STEP     1 STRESS PERIOD     3
      2 TOTAL ITERATIONS
  MAXIMUM CONCENTRATION CHANGES FOR EACH ITERATION:
  MAX. CHANGE LAYER,ROW,COL MAX. CHANGE LAYER,ROW,COL MAX. CHANGE LAYER,ROW,COL MAX. CHANGE LAYER,ROW,COL MAX. CHANGE LAYER,ROW,COL
 ------------------------------------------------------------------------------------------------------------------------------------
    0.000     (  1,  1,  1)   0.000     (  1,  1,  1)


                     STREAM MASS BUDGETS AT END OF TRANSPORT STEP  232, TIME STEP    1, STRESS PERIOD    3 FOR COMPONENT   1
                     -------------------------------------------------------------------------------------------------------

                                         CUMULATIVE MASS [M]                                     MASS FOR THIS TIME STEP [M]
                                         -------------------                                    --------------
                      STREAM DEPLETION =   1924.811                          STREAM DEPLETION =  0.1556590E-02
                      INFLOW TO STREAM =   4885.658                          INFLOW TO STREAM =   8.325000    
                          GW TO STREAM =   461.5590                              GW TO STREAM =  0.9990391    
                         PRECIPITATION =   0.000000                             PRECIPITATION =   0.000000    
                                RUNOFF =   0.000000                                    RUNOFF =   0.000000    
                CONSTANT CONCENTRATION =   0.000000                    CONSTANT CONCENTRATION =   0.000000    
                             MASS GAIN =   0.000000                                 MASS GAIN =   0.000000    
                                         -------------------                                    --------------
                              TOTAL IN =   7272.027                                  TOTAL IN =   9.325595    

                   STREAM ACCUMULATION =   1924.828                       STREAM ACCUMULATION =  0.4624244E-05
                        STREAM OUTFLOW =   5347.194                            STREAM OUTFLOW =   9.325593    
                          STREAM TO GW =   0.000000                              STREAM TO GW =   0.000000    
                CONSTANT CONCENTRATION =   0.000000                    CONSTANT CONCENTRATION =   0.000000    
                           EVAPORATION =   0.000000                               EVAPORATION =   0.000000    
                             MASS LOSS =   0.000000                                 MASS LOSS =   0.000000    
                                         -------------------                                    --------------
                             TOTAL OUT =   7272.022                                 TOTAL OUT =   9.325598    

                        NET (IN - OUT) =  0.4882812E-02                        NET (IN - OUT) = -0.2861023E-05
                 DISCREPANCY (PERCENT) =  0.6714516E-04                 DISCREPANCY (PERCENT) = -0.3067925E-04
                                              FLOW ERR (QIN-QOUT-DV) = -0.9536743E-06 [L3/T]




 >>>>>>>>>>>>>>>>>>>>>>>>>>>>>>>>>>>>>>>>>>>>>>>>>>>>>>>FOR COMPONENT NO. 01<<<<<<<<<<<<<<<<<<<<<<<<<<<<<<<<<<<<<<<<<<<<<<<<<<<<<<<


                                            -------------------------------------------
                                                      TRANSPORT STEP NO.  232
                                            -------------------------------------------

 TOTAL ELAPSED TIME SINCE BEGINNING OF SIMULATION =   83160.00    D   
 .....................................................................

                     CUMULATIVE MASS BUDGETS AT END OF TRANSPORT STEP  232, TIME STEP    1, STRESS PERIOD    3
                     -----------------------------------------------------------------------------------------

                                                             IN                           OUT
                                                      ----------------             ----------------
                               CONSTANT CONCENTRATION:    0.000000                    0.000000    
                                        CONSTANT HEAD:    1038.029                   -576.4756    
                                               STREAM:    0.000000                   -461.5590    
                               MASS STOR (FLOW MODEL):   0.5161509E-02              -0.6986623E-07
                                MASS STORAGE (SOLUTE):    0.000000                    0.000000    
                            ---------------------------------------------------------------------------
                                              [TOTAL]:    1038.034     KG            -1038.035     KG  

                                                          NET (IN - OUT):  -0.6103516E-03
                                                   DISCREPANCY (PERCENT):  -0.5879878E-04
     2 CALLS TO GCG PACKAGE FOR TRANSPORT TIME STEP   233 IN FLOW TIME STEP     1 STRESS PERIOD     3
      2 TOTAL ITERATIONS
  MAXIMUM CONCENTRATION CHANGES FOR EACH ITERATION:
  MAX. CHANGE LAYER,ROW,COL MAX. CHANGE LAYER,ROW,COL MAX. CHANGE LAYER,ROW,COL MAX. CHANGE LAYER,ROW,COL MAX. CHANGE LAYER,ROW,COL
 ------------------------------------------------------------------------------------------------------------------------------------
    0.000     (  1,  1,  1)   0.000     (  1,  1,  1)


                     STREAM MASS BUDGETS AT END OF TRANSPORT STEP  233, TIME STEP    1, STRESS PERIOD    3 FOR COMPONENT   1
                     -------------------------------------------------------------------------------------------------------

                                         CUMULATIVE MASS [M]                                     MASS FOR THIS TIME STEP [M]
                                         -------------------                                    --------------
                      STREAM DEPLETION =   1924.812                          STREAM DEPLETION =  0.1429644E-02
                      INFLOW TO STREAM =   4893.983                          INFLOW TO STREAM =   8.325000    
                          GW TO STREAM =   462.5581                              GW TO STREAM =  0.9990391    
                         PRECIPITATION =   0.000000                             PRECIPITATION =   0.000000    
                                RUNOFF =   0.000000                                    RUNOFF =   0.000000    
                CONSTANT CONCENTRATION =   0.000000                    CONSTANT CONCENTRATION =   0.000000    
                             MASS GAIN =   0.000000                                 MASS GAIN =   0.000000    
                                         -------------------                                    --------------
                              TOTAL IN =   7281.353                                  TOTAL IN =   9.325468    

                   STREAM ACCUMULATION =   1924.828                       STREAM ACCUMULATION =  0.4438388E-05
                        STREAM OUTFLOW =   5356.520                            STREAM OUTFLOW =   9.325466    
                          STREAM TO GW =   0.000000                              STREAM TO GW =   0.000000    
                CONSTANT CONCENTRATION =   0.000000                    CONSTANT CONCENTRATION =   0.000000    
                           EVAPORATION =   0.000000                               EVAPORATION =   0.000000    
                             MASS LOSS =   0.000000                                 MASS LOSS =   0.000000    
                                         -------------------                                    --------------
                             TOTAL OUT =   7281.348                                 TOTAL OUT =   9.325471    

                        NET (IN - OUT) =  0.4882812E-02                        NET (IN - OUT) = -0.2861023E-05
                 DISCREPANCY (PERCENT) =  0.6705916E-04                 DISCREPANCY (PERCENT) = -0.3067966E-04
                                              FLOW ERR (QIN-QOUT-DV) = -0.9536743E-06 [L3/T]




 >>>>>>>>>>>>>>>>>>>>>>>>>>>>>>>>>>>>>>>>>>>>>>>>>>>>>>>FOR COMPONENT NO. 01<<<<<<<<<<<<<<<<<<<<<<<<<<<<<<<<<<<<<<<<<<<<<<<<<<<<<<<


                                            -------------------------------------------
                                                      TRANSPORT STEP NO.  233
                                            -------------------------------------------

 TOTAL ELAPSED TIME SINCE BEGINNING OF SIMULATION =   83340.00    D   
 .....................................................................

                     CUMULATIVE MASS BUDGETS AT END OF TRANSPORT STEP  233, TIME STEP    1, STRESS PERIOD    3
                     -----------------------------------------------------------------------------------------

                                                             IN                           OUT
                                                      ----------------             ----------------
                               CONSTANT CONCENTRATION:    0.000000                    0.000000    
                                        CONSTANT HEAD:    1040.276                   -577.7234    
                                               STREAM:    0.000000                   -462.5581    
                               MASS STOR (FLOW MODEL):   0.5161509E-02              -0.6986623E-07
                                MASS STORAGE (SOLUTE):    0.000000                    0.000000    
                            ---------------------------------------------------------------------------
                                              [TOTAL]:    1040.281     KG            -1040.281     KG  

                                                          NET (IN - OUT):  -0.6103516E-03
                                                   DISCREPANCY (PERCENT):  -0.5867178E-04
     2 CALLS TO GCG PACKAGE FOR TRANSPORT TIME STEP   234 IN FLOW TIME STEP     1 STRESS PERIOD     3
      2 TOTAL ITERATIONS
  MAXIMUM CONCENTRATION CHANGES FOR EACH ITERATION:
  MAX. CHANGE LAYER,ROW,COL MAX. CHANGE LAYER,ROW,COL MAX. CHANGE LAYER,ROW,COL MAX. CHANGE LAYER,ROW,COL MAX. CHANGE LAYER,ROW,COL
 ------------------------------------------------------------------------------------------------------------------------------------
    0.000     (  1,  1,  1)   0.000     (  1,  1,  1)


                     STREAM MASS BUDGETS AT END OF TRANSPORT STEP  234, TIME STEP    1, STRESS PERIOD    3 FOR COMPONENT   1
                     -------------------------------------------------------------------------------------------------------

                                         CUMULATIVE MASS [M]                                     MASS FOR THIS TIME STEP [M]
                                         -------------------                                    --------------
                      STREAM DEPLETION =   1924.813                          STREAM DEPLETION =  0.1312995E-02
                      INFLOW TO STREAM =   4902.308                          INFLOW TO STREAM =   8.325000    
                          GW TO STREAM =   463.5571                              GW TO STREAM =  0.9990391    
                         PRECIPITATION =   0.000000                             PRECIPITATION =   0.000000    
                                RUNOFF =   0.000000                                    RUNOFF =   0.000000    
                CONSTANT CONCENTRATION =   0.000000                    CONSTANT CONCENTRATION =   0.000000    
                             MASS GAIN =   0.000000                                 MASS GAIN =   0.000000    
                                         -------------------                                    --------------
                              TOTAL IN =   7290.679                                  TOTAL IN =   9.325352    

                   STREAM ACCUMULATION =   1924.828                       STREAM ACCUMULATION =  0.4259980E-05
                        STREAM OUTFLOW =   5365.845                            STREAM OUTFLOW =   9.325350    
                          STREAM TO GW =   0.000000                              STREAM TO GW =   0.000000    
                CONSTANT CONCENTRATION =   0.000000                    CONSTANT CONCENTRATION =   0.000000    
                           EVAPORATION =   0.000000                               EVAPORATION =   0.000000    
                             MASS LOSS =   0.000000                                 MASS LOSS =   0.000000    
                                         -------------------                                    --------------
                             TOTAL OUT =   7290.673                                 TOTAL OUT =   9.325354    

                        NET (IN - OUT) =  0.5371094E-02                        NET (IN - OUT) = -0.1907349E-05
                 DISCREPANCY (PERCENT) =  0.7367072E-04                 DISCREPANCY (PERCENT) = -0.2045337E-04
                                              FLOW ERR (QIN-QOUT-DV) = -0.9536743E-06 [L3/T]




 >>>>>>>>>>>>>>>>>>>>>>>>>>>>>>>>>>>>>>>>>>>>>>>>>>>>>>>FOR COMPONENT NO. 01<<<<<<<<<<<<<<<<<<<<<<<<<<<<<<<<<<<<<<<<<<<<<<<<<<<<<<<


                                            -------------------------------------------
                                                      TRANSPORT STEP NO.  234
                                            -------------------------------------------

 TOTAL ELAPSED TIME SINCE BEGINNING OF SIMULATION =   83520.00    D   
 .....................................................................

                     CUMULATIVE MASS BUDGETS AT END OF TRANSPORT STEP  234, TIME STEP    1, STRESS PERIOD    3
                     -----------------------------------------------------------------------------------------

                                                             IN                           OUT
                                                      ----------------             ----------------
                               CONSTANT CONCENTRATION:    0.000000                    0.000000    
                                        CONSTANT HEAD:    1042.523                   -578.9713    
                                               STREAM:    0.000000                   -463.5571    
                               MASS STOR (FLOW MODEL):   0.5161509E-02              -0.6986623E-07
                                MASS STORAGE (SOLUTE):    0.000000                    0.000000    
                            ---------------------------------------------------------------------------
                                              [TOTAL]:    1042.528     KG            -1042.528     KG  

                                                          NET (IN - OUT):  -0.6103516E-03
                                                   DISCREPANCY (PERCENT):  -0.5854533E-04
     2 CALLS TO GCG PACKAGE FOR TRANSPORT TIME STEP   235 IN FLOW TIME STEP     1 STRESS PERIOD     3
      2 TOTAL ITERATIONS
  MAXIMUM CONCENTRATION CHANGES FOR EACH ITERATION:
  MAX. CHANGE LAYER,ROW,COL MAX. CHANGE LAYER,ROW,COL MAX. CHANGE LAYER,ROW,COL MAX. CHANGE LAYER,ROW,COL MAX. CHANGE LAYER,ROW,COL
 ------------------------------------------------------------------------------------------------------------------------------------
    0.000     (  1,  1,  1)   0.000     (  1,  1,  1)


                     STREAM MASS BUDGETS AT END OF TRANSPORT STEP  235, TIME STEP    1, STRESS PERIOD    3 FOR COMPONENT   1
                     -------------------------------------------------------------------------------------------------------

                                         CUMULATIVE MASS [M]                                     MASS FOR THIS TIME STEP [M]
                                         -------------------                                    --------------
                      STREAM DEPLETION =   1924.815                          STREAM DEPLETION =  0.1205812E-02
                      INFLOW TO STREAM =   4910.633                          INFLOW TO STREAM =   8.325000    
                          GW TO STREAM =   464.5562                              GW TO STREAM =  0.9990391    
                         PRECIPITATION =   0.000000                             PRECIPITATION =   0.000000    
                                RUNOFF =   0.000000                                    RUNOFF =   0.000000    
                CONSTANT CONCENTRATION =   0.000000                    CONSTANT CONCENTRATION =   0.000000    
                             MASS GAIN =   0.000000                                 MASS GAIN =   0.000000    
                                         -------------------                                    --------------
                              TOTAL IN =   7300.004                                  TOTAL IN =   9.325244    

                   STREAM ACCUMULATION =   1924.828                       STREAM ACCUMULATION =  0.4088724E-05
                        STREAM OUTFLOW =   5375.170                            STREAM OUTFLOW =   9.325243    
                          STREAM TO GW =   0.000000                              STREAM TO GW =   0.000000    
                CONSTANT CONCENTRATION =   0.000000                    CONSTANT CONCENTRATION =   0.000000    
                           EVAPORATION =   0.000000                               EVAPORATION =   0.000000    
                             MASS LOSS =   0.000000                                 MASS LOSS =   0.000000    
                                         -------------------                                    --------------
                             TOTAL OUT =   7299.999                                 TOTAL OUT =   9.325247    

                        NET (IN - OUT) =  0.5371094E-02                        NET (IN - OUT) = -0.2861023E-05
                 DISCREPANCY (PERCENT) =  0.7357662E-04                 DISCREPANCY (PERCENT) = -0.3068041E-04
                                              FLOW ERR (QIN-QOUT-DV) = -0.9536743E-06 [L3/T]




 >>>>>>>>>>>>>>>>>>>>>>>>>>>>>>>>>>>>>>>>>>>>>>>>>>>>>>>FOR COMPONENT NO. 01<<<<<<<<<<<<<<<<<<<<<<<<<<<<<<<<<<<<<<<<<<<<<<<<<<<<<<<


                                            -------------------------------------------
                                                      TRANSPORT STEP NO.  235
                                            -------------------------------------------

 TOTAL ELAPSED TIME SINCE BEGINNING OF SIMULATION =   83700.00    D   
 .....................................................................

                     CUMULATIVE MASS BUDGETS AT END OF TRANSPORT STEP  235, TIME STEP    1, STRESS PERIOD    3
                     -----------------------------------------------------------------------------------------

                                                             IN                           OUT
                                                      ----------------             ----------------
                               CONSTANT CONCENTRATION:    0.000000                    0.000000    
                                        CONSTANT HEAD:    1044.769                   -580.2191    
                                               STREAM:    0.000000                   -464.5562    
                               MASS STOR (FLOW MODEL):   0.5161509E-02              -0.6986623E-07
                                MASS STORAGE (SOLUTE):    0.000000                    0.000000    
                            ---------------------------------------------------------------------------
                                              [TOTAL]:    1044.775     KG            -1044.775     KG  

                                                          NET (IN - OUT):  -0.7324219E-03
                                                   DISCREPANCY (PERCENT):  -0.7010332E-04
     2 CALLS TO GCG PACKAGE FOR TRANSPORT TIME STEP   236 IN FLOW TIME STEP     1 STRESS PERIOD     3
      2 TOTAL ITERATIONS
  MAXIMUM CONCENTRATION CHANGES FOR EACH ITERATION:
  MAX. CHANGE LAYER,ROW,COL MAX. CHANGE LAYER,ROW,COL MAX. CHANGE LAYER,ROW,COL MAX. CHANGE LAYER,ROW,COL MAX. CHANGE LAYER,ROW,COL
 ------------------------------------------------------------------------------------------------------------------------------------
    0.000     (  1,  1,  1)   0.000     (  1,  1,  1)


                     STREAM MASS BUDGETS AT END OF TRANSPORT STEP  236, TIME STEP    1, STRESS PERIOD    3 FOR COMPONENT   1
                     -------------------------------------------------------------------------------------------------------

                                         CUMULATIVE MASS [M]                                     MASS FOR THIS TIME STEP [M]
                                         -------------------                                    --------------
                      STREAM DEPLETION =   1924.816                          STREAM DEPLETION =  0.1107335E-02
                      INFLOW TO STREAM =   4918.958                          INFLOW TO STREAM =   8.325000    
                          GW TO STREAM =   465.5552                              GW TO STREAM =  0.9990391    
                         PRECIPITATION =   0.000000                             PRECIPITATION =   0.000000    
                                RUNOFF =   0.000000                                    RUNOFF =   0.000000    
                CONSTANT CONCENTRATION =   0.000000                    CONSTANT CONCENTRATION =   0.000000    
                             MASS GAIN =   0.000000                                 MASS GAIN =   0.000000    
                                         -------------------                                    --------------
                              TOTAL IN =   7309.329                                  TOTAL IN =   9.325146    

                   STREAM ACCUMULATION =   1924.828                       STREAM ACCUMULATION =  0.3924333E-05
                        STREAM OUTFLOW =   5384.496                            STREAM OUTFLOW =   9.325145    
                          STREAM TO GW =   0.000000                              STREAM TO GW =   0.000000    
                CONSTANT CONCENTRATION =   0.000000                    CONSTANT CONCENTRATION =   0.000000    
                           EVAPORATION =   0.000000                               EVAPORATION =   0.000000    
                             MASS LOSS =   0.000000                                 MASS LOSS =   0.000000    
                                         -------------------                                    --------------
                             TOTAL OUT =   7309.324                                 TOTAL OUT =   9.325149    

                        NET (IN - OUT) =  0.5371094E-02                        NET (IN - OUT) = -0.2861023E-05
                 DISCREPANCY (PERCENT) =  0.7348275E-04                 DISCREPANCY (PERCENT) = -0.3068073E-04
                                              FLOW ERR (QIN-QOUT-DV) = -0.9536743E-06 [L3/T]




 >>>>>>>>>>>>>>>>>>>>>>>>>>>>>>>>>>>>>>>>>>>>>>>>>>>>>>>FOR COMPONENT NO. 01<<<<<<<<<<<<<<<<<<<<<<<<<<<<<<<<<<<<<<<<<<<<<<<<<<<<<<<


                                            -------------------------------------------
                                                      TRANSPORT STEP NO.  236
                                            -------------------------------------------

 TOTAL ELAPSED TIME SINCE BEGINNING OF SIMULATION =   83880.00    D   
 .....................................................................

                     CUMULATIVE MASS BUDGETS AT END OF TRANSPORT STEP  236, TIME STEP    1, STRESS PERIOD    3
                     -----------------------------------------------------------------------------------------

                                                             IN                           OUT
                                                      ----------------             ----------------
                               CONSTANT CONCENTRATION:    0.000000                    0.000000    
                                        CONSTANT HEAD:    1047.016                   -581.4669    
                                               STREAM:    0.000000                   -465.5552    
                               MASS STOR (FLOW MODEL):   0.5161509E-02              -0.6986623E-07
                                MASS STORAGE (SOLUTE):    0.000000                    0.000000    
                            ---------------------------------------------------------------------------
                                              [TOTAL]:    1047.021     KG            -1047.022     KG  

                                                          NET (IN - OUT):  -0.7324219E-03
                                                   DISCREPANCY (PERCENT):  -0.6995288E-04
     2 CALLS TO GCG PACKAGE FOR TRANSPORT TIME STEP   237 IN FLOW TIME STEP     1 STRESS PERIOD     3
      2 TOTAL ITERATIONS
  MAXIMUM CONCENTRATION CHANGES FOR EACH ITERATION:
  MAX. CHANGE LAYER,ROW,COL MAX. CHANGE LAYER,ROW,COL MAX. CHANGE LAYER,ROW,COL MAX. CHANGE LAYER,ROW,COL MAX. CHANGE LAYER,ROW,COL
 ------------------------------------------------------------------------------------------------------------------------------------
    0.000     (  1,  1,  1)   0.000     (  1,  1,  1)


                     STREAM MASS BUDGETS AT END OF TRANSPORT STEP  237, TIME STEP    1, STRESS PERIOD    3 FOR COMPONENT   1
                     -------------------------------------------------------------------------------------------------------

                                         CUMULATIVE MASS [M]                                     MASS FOR THIS TIME STEP [M]
                                         -------------------                                    --------------
                      STREAM DEPLETION =   1924.817                          STREAM DEPLETION =  0.1016861E-02
                      INFLOW TO STREAM =   4927.284                          INFLOW TO STREAM =   8.325000    
                          GW TO STREAM =   466.5543                              GW TO STREAM =  0.9990391    
                         PRECIPITATION =   0.000000                             PRECIPITATION =   0.000000    
                                RUNOFF =   0.000000                                    RUNOFF =   0.000000    
                CONSTANT CONCENTRATION =   0.000000                    CONSTANT CONCENTRATION =   0.000000    
                             MASS GAIN =   0.000000                                 MASS GAIN =   0.000000    
                                         -------------------                                    --------------
                              TOTAL IN =   7318.654                                  TOTAL IN =   9.325055    

                   STREAM ACCUMULATION =   1924.828                       STREAM ACCUMULATION =  0.3766537E-05
                        STREAM OUTFLOW =   5393.821                            STREAM OUTFLOW =   9.325054    
                          STREAM TO GW =   0.000000                              STREAM TO GW =   0.000000    
                CONSTANT CONCENTRATION =   0.000000                    CONSTANT CONCENTRATION =   0.000000    
                           EVAPORATION =   0.000000                               EVAPORATION =   0.000000    
                             MASS LOSS =   0.000000                                 MASS LOSS =   0.000000    
                                         -------------------                                    --------------
                             TOTAL OUT =   7318.649                                 TOTAL OUT =   9.325058    

                        NET (IN - OUT) =  0.5371094E-02                        NET (IN - OUT) = -0.2861023E-05
                 DISCREPANCY (PERCENT) =  0.7338912E-04                 DISCREPANCY (PERCENT) = -0.3068103E-04
                                              FLOW ERR (QIN-QOUT-DV) = -0.9536743E-06 [L3/T]




 >>>>>>>>>>>>>>>>>>>>>>>>>>>>>>>>>>>>>>>>>>>>>>>>>>>>>>>FOR COMPONENT NO. 01<<<<<<<<<<<<<<<<<<<<<<<<<<<<<<<<<<<<<<<<<<<<<<<<<<<<<<<


                                            -------------------------------------------
                                                      TRANSPORT STEP NO.  237
                                            -------------------------------------------

 TOTAL ELAPSED TIME SINCE BEGINNING OF SIMULATION =   84060.00    D   
 .....................................................................

                     CUMULATIVE MASS BUDGETS AT END OF TRANSPORT STEP  237, TIME STEP    1, STRESS PERIOD    3
                     -----------------------------------------------------------------------------------------

                                                             IN                           OUT
                                                      ----------------             ----------------
                               CONSTANT CONCENTRATION:    0.000000                    0.000000    
                                        CONSTANT HEAD:    1049.263                   -582.7147    
                                               STREAM:    0.000000                   -466.5543    
                               MASS STOR (FLOW MODEL):   0.5161509E-02              -0.6986623E-07
                                MASS STORAGE (SOLUTE):    0.000000                    0.000000    
                            ---------------------------------------------------------------------------
                                              [TOTAL]:    1049.268     KG            -1049.269     KG  

                                                          NET (IN - OUT):  -0.7324219E-03
                                                   DISCREPANCY (PERCENT):  -0.6980309E-04
     2 CALLS TO GCG PACKAGE FOR TRANSPORT TIME STEP   238 IN FLOW TIME STEP     1 STRESS PERIOD     3
      2 TOTAL ITERATIONS
  MAXIMUM CONCENTRATION CHANGES FOR EACH ITERATION:
  MAX. CHANGE LAYER,ROW,COL MAX. CHANGE LAYER,ROW,COL MAX. CHANGE LAYER,ROW,COL MAX. CHANGE LAYER,ROW,COL MAX. CHANGE LAYER,ROW,COL
 ------------------------------------------------------------------------------------------------------------------------------------
    0.000     (  1,  1,  1)   0.000     (  1,  1,  1)


                     STREAM MASS BUDGETS AT END OF TRANSPORT STEP  238, TIME STEP    1, STRESS PERIOD    3 FOR COMPONENT   1
                     -------------------------------------------------------------------------------------------------------

                                         CUMULATIVE MASS [M]                                     MASS FOR THIS TIME STEP [M]
                                         -------------------                                    --------------
                      STREAM DEPLETION =   1924.818                          STREAM DEPLETION =  0.9337445E-03
                      INFLOW TO STREAM =   4935.609                          INFLOW TO STREAM =   8.325000    
                          GW TO STREAM =   467.5533                              GW TO STREAM =  0.9990391    
                         PRECIPITATION =   0.000000                             PRECIPITATION =   0.000000    
                                RUNOFF =   0.000000                                    RUNOFF =   0.000000    
                CONSTANT CONCENTRATION =   0.000000                    CONSTANT CONCENTRATION =   0.000000    
                             MASS GAIN =   0.000000                                 MASS GAIN =   0.000000    
                                         -------------------                                    --------------
                              TOTAL IN =   7327.980                                  TOTAL IN =   9.324972    

                   STREAM ACCUMULATION =   1924.828                       STREAM ACCUMULATION =  0.3615140E-05
                        STREAM OUTFLOW =   5403.146                            STREAM OUTFLOW =   9.324971    
                          STREAM TO GW =   0.000000                              STREAM TO GW =   0.000000    
                CONSTANT CONCENTRATION =   0.000000                    CONSTANT CONCENTRATION =   0.000000    
                           EVAPORATION =   0.000000                               EVAPORATION =   0.000000    
                             MASS LOSS =   0.000000                                 MASS LOSS =   0.000000    
                                         -------------------                                    --------------
                             TOTAL OUT =   7327.974                                 TOTAL OUT =   9.324975    

                        NET (IN - OUT) =  0.5859375E-02                        NET (IN - OUT) = -0.2861023E-05
                 DISCREPANCY (PERCENT) =  0.7995897E-04                 DISCREPANCY (PERCENT) = -0.3068130E-04
                                              FLOW ERR (QIN-QOUT-DV) = -0.9536743E-06 [L3/T]




 >>>>>>>>>>>>>>>>>>>>>>>>>>>>>>>>>>>>>>>>>>>>>>>>>>>>>>>FOR COMPONENT NO. 01<<<<<<<<<<<<<<<<<<<<<<<<<<<<<<<<<<<<<<<<<<<<<<<<<<<<<<<


                                            -------------------------------------------
                                                      TRANSPORT STEP NO.  238
                                            -------------------------------------------

 TOTAL ELAPSED TIME SINCE BEGINNING OF SIMULATION =   84240.00    D   
 .....................................................................

                     CUMULATIVE MASS BUDGETS AT END OF TRANSPORT STEP  238, TIME STEP    1, STRESS PERIOD    3
                     -----------------------------------------------------------------------------------------

                                                             IN                           OUT
                                                      ----------------             ----------------
                               CONSTANT CONCENTRATION:    0.000000                    0.000000    
                                        CONSTANT HEAD:    1051.510                   -583.9625    
                                               STREAM:    0.000000                   -467.5533    
                               MASS STOR (FLOW MODEL):   0.5161509E-02              -0.6986623E-07
                                MASS STORAGE (SOLUTE):    0.000000                    0.000000    
                            ---------------------------------------------------------------------------
                                              [TOTAL]:    1051.515     KG            -1051.516     KG  

                                                          NET (IN - OUT):  -0.8544922E-03
                                                   DISCREPANCY (PERCENT):  -0.8126293E-04
     2 CALLS TO GCG PACKAGE FOR TRANSPORT TIME STEP   239 IN FLOW TIME STEP     1 STRESS PERIOD     3
      2 TOTAL ITERATIONS
  MAXIMUM CONCENTRATION CHANGES FOR EACH ITERATION:
  MAX. CHANGE LAYER,ROW,COL MAX. CHANGE LAYER,ROW,COL MAX. CHANGE LAYER,ROW,COL MAX. CHANGE LAYER,ROW,COL MAX. CHANGE LAYER,ROW,COL
 ------------------------------------------------------------------------------------------------------------------------------------
    0.000     (  1,  1,  1)   0.000     (  1,  1,  1)


                     STREAM MASS BUDGETS AT END OF TRANSPORT STEP  239, TIME STEP    1, STRESS PERIOD    3 FOR COMPONENT   1
                     -------------------------------------------------------------------------------------------------------

                                         CUMULATIVE MASS [M]                                     MASS FOR THIS TIME STEP [M]
                                         -------------------                                    --------------
                      STREAM DEPLETION =   1924.818                          STREAM DEPLETION =  0.8573918E-03
                      INFLOW TO STREAM =   4943.934                          INFLOW TO STREAM =   8.325000    
                          GW TO STREAM =   468.5524                              GW TO STREAM =  0.9990391    
                         PRECIPITATION =   0.000000                             PRECIPITATION =   0.000000    
                                RUNOFF =   0.000000                                    RUNOFF =   0.000000    
                CONSTANT CONCENTRATION =   0.000000                    CONSTANT CONCENTRATION =   0.000000    
                             MASS GAIN =   0.000000                                 MASS GAIN =   0.000000    
                                         -------------------                                    --------------
                              TOTAL IN =   7337.305                                  TOTAL IN =   9.324896    

                   STREAM ACCUMULATION =   1924.828                       STREAM ACCUMULATION =  0.3470082E-05
                        STREAM OUTFLOW =   5412.471                            STREAM OUTFLOW =   9.324895    
                          STREAM TO GW =   0.000000                              STREAM TO GW =   0.000000    
                CONSTANT CONCENTRATION =   0.000000                    CONSTANT CONCENTRATION =   0.000000    
                           EVAPORATION =   0.000000                               EVAPORATION =   0.000000    
                             MASS LOSS =   0.000000                                 MASS LOSS =   0.000000    
                                         -------------------                                    --------------
                             TOTAL OUT =   7337.299                                 TOTAL OUT =   9.324899    

                        NET (IN - OUT) =  0.5859375E-02                        NET (IN - OUT) = -0.2861023E-05
                 DISCREPANCY (PERCENT) =  0.7985735E-04                 DISCREPANCY (PERCENT) = -0.3068155E-04
                                              FLOW ERR (QIN-QOUT-DV) = -0.9536743E-06 [L3/T]




 >>>>>>>>>>>>>>>>>>>>>>>>>>>>>>>>>>>>>>>>>>>>>>>>>>>>>>>FOR COMPONENT NO. 01<<<<<<<<<<<<<<<<<<<<<<<<<<<<<<<<<<<<<<<<<<<<<<<<<<<<<<<


                                            -------------------------------------------
                                                      TRANSPORT STEP NO.  239
                                            -------------------------------------------

 TOTAL ELAPSED TIME SINCE BEGINNING OF SIMULATION =   84420.00    D   
 .....................................................................

                     CUMULATIVE MASS BUDGETS AT END OF TRANSPORT STEP  239, TIME STEP    1, STRESS PERIOD    3
                     -----------------------------------------------------------------------------------------

                                                             IN                           OUT
                                                      ----------------             ----------------
                               CONSTANT CONCENTRATION:    0.000000                    0.000000    
                                        CONSTANT HEAD:    1053.757                   -585.2103    
                                               STREAM:    0.000000                   -468.5524    
                               MASS STOR (FLOW MODEL):   0.5161509E-02              -0.6986623E-07
                                MASS STORAGE (SOLUTE):    0.000000                    0.000000    
                            ---------------------------------------------------------------------------
                                              [TOTAL]:    1053.762     KG            -1053.763     KG  

                                                          NET (IN - OUT):  -0.8544922E-03
                                                   DISCREPANCY (PERCENT):  -0.8108966E-04
     2 CALLS TO GCG PACKAGE FOR TRANSPORT TIME STEP   240 IN FLOW TIME STEP     1 STRESS PERIOD     3
      2 TOTAL ITERATIONS
  MAXIMUM CONCENTRATION CHANGES FOR EACH ITERATION:
  MAX. CHANGE LAYER,ROW,COL MAX. CHANGE LAYER,ROW,COL MAX. CHANGE LAYER,ROW,COL MAX. CHANGE LAYER,ROW,COL MAX. CHANGE LAYER,ROW,COL
 ------------------------------------------------------------------------------------------------------------------------------------
    0.000     (  1,  1,  1)   0.000     (  1,  1,  1)


                     STREAM MASS BUDGETS AT END OF TRANSPORT STEP  240, TIME STEP    1, STRESS PERIOD    3 FOR COMPONENT   1
                     -------------------------------------------------------------------------------------------------------

                                         CUMULATIVE MASS [M]                                     MASS FOR THIS TIME STEP [M]
                                         -------------------                                    --------------
                      STREAM DEPLETION =   1924.819                          STREAM DEPLETION =  0.7872556E-03
                      INFLOW TO STREAM =   4952.259                          INFLOW TO STREAM =   8.325000    
                          GW TO STREAM =   469.5515                              GW TO STREAM =  0.9990391    
                         PRECIPITATION =   0.000000                             PRECIPITATION =   0.000000    
                                RUNOFF =   0.000000                                    RUNOFF =   0.000000    
                CONSTANT CONCENTRATION =   0.000000                    CONSTANT CONCENTRATION =   0.000000    
                             MASS GAIN =   0.000000                                 MASS GAIN =   0.000000    
                                         -------------------                                    --------------
                              TOTAL IN =   7346.630                                  TOTAL IN =   9.324825    

                   STREAM ACCUMULATION =   1924.828                       STREAM ACCUMULATION =  0.3330827E-05
                        STREAM OUTFLOW =   5421.795                            STREAM OUTFLOW =   9.324825    
                          STREAM TO GW =   0.000000                              STREAM TO GW =   0.000000    
                CONSTANT CONCENTRATION =   0.000000                    CONSTANT CONCENTRATION =   0.000000    
                           EVAPORATION =   0.000000                               EVAPORATION =   0.000000    
                             MASS LOSS =   0.000000                                 MASS LOSS =   0.000000    
                                         -------------------                                    --------------
                             TOTAL OUT =   7346.624                                 TOTAL OUT =   9.324828    

                        NET (IN - OUT) =  0.6347656E-02                        NET (IN - OUT) = -0.2861023E-05
                 DISCREPANCY (PERCENT) =  0.8640232E-04                 DISCREPANCY (PERCENT) = -0.3068178E-04
                                              FLOW ERR (QIN-QOUT-DV) = -0.9536743E-06 [L3/T]




 >>>>>>>>>>>>>>>>>>>>>>>>>>>>>>>>>>>>>>>>>>>>>>>>>>>>>>>FOR COMPONENT NO. 01<<<<<<<<<<<<<<<<<<<<<<<<<<<<<<<<<<<<<<<<<<<<<<<<<<<<<<<


                                            -------------------------------------------
                                                      TRANSPORT STEP NO.  240
                                            -------------------------------------------

 TOTAL ELAPSED TIME SINCE BEGINNING OF SIMULATION =   84600.00    D   
 .....................................................................

                     CUMULATIVE MASS BUDGETS AT END OF TRANSPORT STEP  240, TIME STEP    1, STRESS PERIOD    3
                     -----------------------------------------------------------------------------------------

                                                             IN                           OUT
                                                      ----------------             ----------------
                               CONSTANT CONCENTRATION:    0.000000                    0.000000    
                                        CONSTANT HEAD:    1056.004                   -586.4581    
                                               STREAM:    0.000000                   -469.5515    
                               MASS STOR (FLOW MODEL):   0.5161509E-02              -0.6986623E-07
                                MASS STORAGE (SOLUTE):    0.000000                    0.000000    
                            ---------------------------------------------------------------------------
                                              [TOTAL]:    1056.009     KG            -1056.010     KG  

                                                          NET (IN - OUT):  -0.8544922E-03
                                                   DISCREPANCY (PERCENT):  -0.8091713E-04
     2 CALLS TO GCG PACKAGE FOR TRANSPORT TIME STEP   241 IN FLOW TIME STEP     1 STRESS PERIOD     3
      2 TOTAL ITERATIONS
  MAXIMUM CONCENTRATION CHANGES FOR EACH ITERATION:
  MAX. CHANGE LAYER,ROW,COL MAX. CHANGE LAYER,ROW,COL MAX. CHANGE LAYER,ROW,COL MAX. CHANGE LAYER,ROW,COL MAX. CHANGE LAYER,ROW,COL
 ------------------------------------------------------------------------------------------------------------------------------------
    0.000     (  1,  1,  1)   0.000     (  1,  1,  1)


                     STREAM MASS BUDGETS AT END OF TRANSPORT STEP  241, TIME STEP    1, STRESS PERIOD    3 FOR COMPONENT   1
                     -------------------------------------------------------------------------------------------------------

                                         CUMULATIVE MASS [M]                                     MASS FOR THIS TIME STEP [M]
                                         -------------------                                    --------------
                      STREAM DEPLETION =   1924.820                          STREAM DEPLETION =  0.7228334E-03
                      INFLOW TO STREAM =   4960.584                          INFLOW TO STREAM =   8.325000    
                          GW TO STREAM =   470.5505                              GW TO STREAM =  0.9990391    
                         PRECIPITATION =   0.000000                             PRECIPITATION =   0.000000    
                                RUNOFF =   0.000000                                    RUNOFF =   0.000000    
                CONSTANT CONCENTRATION =   0.000000                    CONSTANT CONCENTRATION =   0.000000    
                             MASS GAIN =   0.000000                                 MASS GAIN =   0.000000    
                                         -------------------                                    --------------
                              TOTAL IN =   7355.955                                  TOTAL IN =   9.324761    

                   STREAM ACCUMULATION =   1924.828                       STREAM ACCUMULATION =  0.3197146E-05
                        STREAM OUTFLOW =   5431.120                            STREAM OUTFLOW =   9.324760    
                          STREAM TO GW =   0.000000                              STREAM TO GW =   0.000000    
                CONSTANT CONCENTRATION =   0.000000                    CONSTANT CONCENTRATION =   0.000000    
                           EVAPORATION =   0.000000                               EVAPORATION =   0.000000    
                             MASS LOSS =   0.000000                                 MASS LOSS =   0.000000    
                                         -------------------                                    --------------
                             TOTAL OUT =   7355.948                                 TOTAL OUT =   9.324763    

                        NET (IN - OUT) =  0.6835938E-02                        NET (IN - OUT) = -0.1907349E-05
                 DISCREPANCY (PERCENT) =  0.9293070E-04                 DISCREPANCY (PERCENT) = -0.2045466E-04
                                              FLOW ERR (QIN-QOUT-DV) = -0.9536743E-06 [L3/T]




 >>>>>>>>>>>>>>>>>>>>>>>>>>>>>>>>>>>>>>>>>>>>>>>>>>>>>>>FOR COMPONENT NO. 01<<<<<<<<<<<<<<<<<<<<<<<<<<<<<<<<<<<<<<<<<<<<<<<<<<<<<<<


                                            -------------------------------------------
                                                      TRANSPORT STEP NO.  241
                                            -------------------------------------------

 TOTAL ELAPSED TIME SINCE BEGINNING OF SIMULATION =   84780.00    D   
 .....................................................................

                     CUMULATIVE MASS BUDGETS AT END OF TRANSPORT STEP  241, TIME STEP    1, STRESS PERIOD    3
                     -----------------------------------------------------------------------------------------

                                                             IN                           OUT
                                                      ----------------             ----------------
                               CONSTANT CONCENTRATION:    0.000000                    0.000000    
                                        CONSTANT HEAD:    1058.250                   -587.7059    
                                               STREAM:    0.000000                   -470.5505    
                               MASS STOR (FLOW MODEL):   0.5161509E-02              -0.6986623E-07
                                MASS STORAGE (SOLUTE):    0.000000                    0.000000    
                            ---------------------------------------------------------------------------
                                              [TOTAL]:    1058.255     KG            -1058.256     KG  

                                                          NET (IN - OUT):  -0.8544922E-03
                                                   DISCREPANCY (PERCENT):  -0.8074533E-04
     2 CALLS TO GCG PACKAGE FOR TRANSPORT TIME STEP   242 IN FLOW TIME STEP     1 STRESS PERIOD     3
      2 TOTAL ITERATIONS
  MAXIMUM CONCENTRATION CHANGES FOR EACH ITERATION:
  MAX. CHANGE LAYER,ROW,COL MAX. CHANGE LAYER,ROW,COL MAX. CHANGE LAYER,ROW,COL MAX. CHANGE LAYER,ROW,COL MAX. CHANGE LAYER,ROW,COL
 ------------------------------------------------------------------------------------------------------------------------------------
    0.000     (  1,  1,  1)   0.000     (  1,  1,  1)


                     STREAM MASS BUDGETS AT END OF TRANSPORT STEP  242, TIME STEP    1, STRESS PERIOD    3 FOR COMPONENT   1
                     -------------------------------------------------------------------------------------------------------

                                         CUMULATIVE MASS [M]                                     MASS FOR THIS TIME STEP [M]
                                         -------------------                                    --------------
                      STREAM DEPLETION =   1924.821                          STREAM DEPLETION =  0.6636627E-03
                      INFLOW TO STREAM =   4968.910                          INFLOW TO STREAM =   8.325000    
                          GW TO STREAM =   471.5496                              GW TO STREAM =  0.9990391    
                         PRECIPITATION =   0.000000                             PRECIPITATION =   0.000000    
                                RUNOFF =   0.000000                                    RUNOFF =   0.000000    
                CONSTANT CONCENTRATION =   0.000000                    CONSTANT CONCENTRATION =   0.000000    
                             MASS GAIN =   0.000000                                 MASS GAIN =   0.000000    
                                         -------------------                                    --------------
                              TOTAL IN =   7365.280                                  TOTAL IN =   9.324702    

                   STREAM ACCUMULATION =   1924.828                       STREAM ACCUMULATION =  0.3068813E-05
                        STREAM OUTFLOW =   5440.445                            STREAM OUTFLOW =   9.324701    
                          STREAM TO GW =   0.000000                              STREAM TO GW =   0.000000    
                CONSTANT CONCENTRATION =   0.000000                    CONSTANT CONCENTRATION =   0.000000    
                           EVAPORATION =   0.000000                               EVAPORATION =   0.000000    
                             MASS LOSS =   0.000000                                 MASS LOSS =   0.000000    
                                         -------------------                                    --------------
                             TOTAL OUT =   7365.273                                 TOTAL OUT =   9.324704    

                        NET (IN - OUT) =  0.6835938E-02                        NET (IN - OUT) = -0.1907349E-05
                 DISCREPANCY (PERCENT) =  0.9281305E-04                 DISCREPANCY (PERCENT) = -0.2045479E-04
                                              FLOW ERR (QIN-QOUT-DV) = -0.9536743E-06 [L3/T]




 >>>>>>>>>>>>>>>>>>>>>>>>>>>>>>>>>>>>>>>>>>>>>>>>>>>>>>>FOR COMPONENT NO. 01<<<<<<<<<<<<<<<<<<<<<<<<<<<<<<<<<<<<<<<<<<<<<<<<<<<<<<<


                                            -------------------------------------------
                                                      TRANSPORT STEP NO.  242
                                            -------------------------------------------

 TOTAL ELAPSED TIME SINCE BEGINNING OF SIMULATION =   84960.00    D   
 .....................................................................

                     CUMULATIVE MASS BUDGETS AT END OF TRANSPORT STEP  242, TIME STEP    1, STRESS PERIOD    3
                     -----------------------------------------------------------------------------------------

                                                             IN                           OUT
                                                      ----------------             ----------------
                               CONSTANT CONCENTRATION:    0.000000                    0.000000    
                                        CONSTANT HEAD:    1060.497                   -588.9537    
                                               STREAM:    0.000000                   -471.5496    
                               MASS STOR (FLOW MODEL):   0.5161509E-02              -0.6986623E-07
                                MASS STORAGE (SOLUTE):    0.000000                    0.000000    
                            ---------------------------------------------------------------------------
                                              [TOTAL]:    1060.502     KG            -1060.503     KG  

                                                          NET (IN - OUT):  -0.8544922E-03
                                                   DISCREPANCY (PERCENT):  -0.8057426E-04
     2 CALLS TO GCG PACKAGE FOR TRANSPORT TIME STEP   243 IN FLOW TIME STEP     1 STRESS PERIOD     3
      2 TOTAL ITERATIONS
  MAXIMUM CONCENTRATION CHANGES FOR EACH ITERATION:
  MAX. CHANGE LAYER,ROW,COL MAX. CHANGE LAYER,ROW,COL MAX. CHANGE LAYER,ROW,COL MAX. CHANGE LAYER,ROW,COL MAX. CHANGE LAYER,ROW,COL
 ------------------------------------------------------------------------------------------------------------------------------------
    0.000     (  1,  1,  1)   0.000     (  1,  1,  1)


                     STREAM MASS BUDGETS AT END OF TRANSPORT STEP  243, TIME STEP    1, STRESS PERIOD    3 FOR COMPONENT   1
                     -------------------------------------------------------------------------------------------------------

                                         CUMULATIVE MASS [M]                                     MASS FOR THIS TIME STEP [M]
                                         -------------------                                    --------------
                      STREAM DEPLETION =   1924.821                          STREAM DEPLETION =  0.6093176E-03
                      INFLOW TO STREAM =   4977.235                          INFLOW TO STREAM =   8.325000    
                          GW TO STREAM =   472.5486                              GW TO STREAM =  0.9990391    
                         PRECIPITATION =   0.000000                             PRECIPITATION =   0.000000    
                                RUNOFF =   0.000000                                    RUNOFF =   0.000000    
                CONSTANT CONCENTRATION =   0.000000                    CONSTANT CONCENTRATION =   0.000000    
                             MASS GAIN =   0.000000                                 MASS GAIN =   0.000000    
                                         -------------------                                    --------------
                              TOTAL IN =   7374.604                                  TOTAL IN =   9.324648    

                   STREAM ACCUMULATION =   1924.828                       STREAM ACCUMULATION =  0.2945618E-05
                        STREAM OUTFLOW =   5449.770                            STREAM OUTFLOW =   9.324647    
                          STREAM TO GW =   0.000000                              STREAM TO GW =   0.000000    
                CONSTANT CONCENTRATION =   0.000000                    CONSTANT CONCENTRATION =   0.000000    
                           EVAPORATION =   0.000000                               EVAPORATION =   0.000000    
                             MASS LOSS =   0.000000                                 MASS LOSS =   0.000000    
                                         -------------------                                    --------------
                             TOTAL OUT =   7374.598                                 TOTAL OUT =   9.324650    

                        NET (IN - OUT) =  0.6835938E-02                        NET (IN - OUT) = -0.1907349E-05
                 DISCREPANCY (PERCENT) =  0.9269569E-04                 DISCREPANCY (PERCENT) = -0.2045491E-04
                                              FLOW ERR (QIN-QOUT-DV) = -0.9536743E-06 [L3/T]




 >>>>>>>>>>>>>>>>>>>>>>>>>>>>>>>>>>>>>>>>>>>>>>>>>>>>>>>FOR COMPONENT NO. 01<<<<<<<<<<<<<<<<<<<<<<<<<<<<<<<<<<<<<<<<<<<<<<<<<<<<<<<


                                            -------------------------------------------
                                                      TRANSPORT STEP NO.  243
                                            -------------------------------------------

 TOTAL ELAPSED TIME SINCE BEGINNING OF SIMULATION =   85140.00    D   
 .....................................................................

                     CUMULATIVE MASS BUDGETS AT END OF TRANSPORT STEP  243, TIME STEP    1, STRESS PERIOD    3
                     -----------------------------------------------------------------------------------------

                                                             IN                           OUT
                                                      ----------------             ----------------
                               CONSTANT CONCENTRATION:    0.000000                    0.000000    
                                        CONSTANT HEAD:    1062.744                   -590.2015    
                                               STREAM:    0.000000                   -472.5486    
                               MASS STOR (FLOW MODEL):   0.5161509E-02              -0.6986623E-07
                                MASS STORAGE (SOLUTE):    0.000000                    0.000000    
                            ---------------------------------------------------------------------------
                                              [TOTAL]:    1062.749     KG            -1062.750     KG  

                                                          NET (IN - OUT):  -0.9765625E-03
                                                   DISCREPANCY (PERCENT):  -0.9189018E-04
     2 CALLS TO GCG PACKAGE FOR TRANSPORT TIME STEP   244 IN FLOW TIME STEP     1 STRESS PERIOD     3
      2 TOTAL ITERATIONS
  MAXIMUM CONCENTRATION CHANGES FOR EACH ITERATION:
  MAX. CHANGE LAYER,ROW,COL MAX. CHANGE LAYER,ROW,COL MAX. CHANGE LAYER,ROW,COL MAX. CHANGE LAYER,ROW,COL MAX. CHANGE LAYER,ROW,COL
 ------------------------------------------------------------------------------------------------------------------------------------
    0.000     (  1,  1,  1)   0.000     (  1,  1,  1)


                     STREAM MASS BUDGETS AT END OF TRANSPORT STEP  244, TIME STEP    1, STRESS PERIOD    3 FOR COMPONENT   1
                     -------------------------------------------------------------------------------------------------------

                                         CUMULATIVE MASS [M]                                     MASS FOR THIS TIME STEP [M]
                                         -------------------                                    --------------
                      STREAM DEPLETION =   1924.822                          STREAM DEPLETION =  0.5594072E-03
                      INFLOW TO STREAM =   4985.560                          INFLOW TO STREAM =   8.325000    
                          GW TO STREAM =   473.5477                              GW TO STREAM =  0.9990391    
                         PRECIPITATION =   0.000000                             PRECIPITATION =   0.000000    
                                RUNOFF =   0.000000                                    RUNOFF =   0.000000    
                CONSTANT CONCENTRATION =   0.000000                    CONSTANT CONCENTRATION =   0.000000    
                             MASS GAIN =   0.000000                                 MASS GAIN =   0.000000    
                                         -------------------                                    --------------
                              TOTAL IN =   7383.930                                  TOTAL IN =   9.324598    

                   STREAM ACCUMULATION =   1924.828                       STREAM ACCUMULATION =  0.2827353E-05
                        STREAM OUTFLOW =   5459.094                            STREAM OUTFLOW =   9.324597    
                          STREAM TO GW =   0.000000                              STREAM TO GW =   0.000000    
                CONSTANT CONCENTRATION =   0.000000                    CONSTANT CONCENTRATION =   0.000000    
                           EVAPORATION =   0.000000                               EVAPORATION =   0.000000    
                             MASS LOSS =   0.000000                                 MASS LOSS =   0.000000    
                                         -------------------                                    --------------
                             TOTAL OUT =   7383.922                                 TOTAL OUT =   9.324600    

                        NET (IN - OUT) =  0.7324219E-02                        NET (IN - OUT) = -0.1907349E-05
                 DISCREPANCY (PERCENT) =  0.9919139E-04                 DISCREPANCY (PERCENT) = -0.2045502E-04
                                              FLOW ERR (QIN-QOUT-DV) = -0.9536743E-06 [L3/T]




 >>>>>>>>>>>>>>>>>>>>>>>>>>>>>>>>>>>>>>>>>>>>>>>>>>>>>>>FOR COMPONENT NO. 01<<<<<<<<<<<<<<<<<<<<<<<<<<<<<<<<<<<<<<<<<<<<<<<<<<<<<<<


                                            -------------------------------------------
                                                      TRANSPORT STEP NO.  244
                                            -------------------------------------------

 TOTAL ELAPSED TIME SINCE BEGINNING OF SIMULATION =   85320.00    D   
 .....................................................................

                     CUMULATIVE MASS BUDGETS AT END OF TRANSPORT STEP  244, TIME STEP    1, STRESS PERIOD    3
                     -----------------------------------------------------------------------------------------

                                                             IN                           OUT
                                                      ----------------             ----------------
                               CONSTANT CONCENTRATION:    0.000000                    0.000000    
                                        CONSTANT HEAD:    1064.991                   -591.4493    
                                               STREAM:    0.000000                   -473.5477    
                               MASS STOR (FLOW MODEL):   0.5161509E-02              -0.6986623E-07
                                MASS STORAGE (SOLUTE):    0.000000                    0.000000    
                            ---------------------------------------------------------------------------
                                              [TOTAL]:    1064.996     KG            -1064.997     KG  

                                                          NET (IN - OUT):  -0.9765625E-03
                                                   DISCREPANCY (PERCENT):  -0.9169631E-04
     2 CALLS TO GCG PACKAGE FOR TRANSPORT TIME STEP   245 IN FLOW TIME STEP     1 STRESS PERIOD     3
      2 TOTAL ITERATIONS
  MAXIMUM CONCENTRATION CHANGES FOR EACH ITERATION:
  MAX. CHANGE LAYER,ROW,COL MAX. CHANGE LAYER,ROW,COL MAX. CHANGE LAYER,ROW,COL MAX. CHANGE LAYER,ROW,COL MAX. CHANGE LAYER,ROW,COL
 ------------------------------------------------------------------------------------------------------------------------------------
    0.000     (  1,  1,  1)   0.000     (  1,  1,  1)


                     STREAM MASS BUDGETS AT END OF TRANSPORT STEP  245, TIME STEP    1, STRESS PERIOD    3 FOR COMPONENT   1
                     -------------------------------------------------------------------------------------------------------

                                         CUMULATIVE MASS [M]                                     MASS FOR THIS TIME STEP [M]
                                         -------------------                                    --------------
                      STREAM DEPLETION =   1924.822                          STREAM DEPLETION =  0.5135714E-03
                      INFLOW TO STREAM =   4993.885                          INFLOW TO STREAM =   8.325000    
                          GW TO STREAM =   474.5467                              GW TO STREAM =  0.9990391    
                         PRECIPITATION =   0.000000                             PRECIPITATION =   0.000000    
                                RUNOFF =   0.000000                                    RUNOFF =   0.000000    
                CONSTANT CONCENTRATION =   0.000000                    CONSTANT CONCENTRATION =   0.000000    
                             MASS GAIN =   0.000000                                 MASS GAIN =   0.000000    
                                         -------------------                                    --------------
                              TOTAL IN =   7393.254                                  TOTAL IN =   9.324553    

                   STREAM ACCUMULATION =   1924.828                       STREAM ACCUMULATION =  0.2713824E-05
                        STREAM OUTFLOW =   5468.419                            STREAM OUTFLOW =   9.324552    
                          STREAM TO GW =   0.000000                              STREAM TO GW =   0.000000    
                CONSTANT CONCENTRATION =   0.000000                    CONSTANT CONCENTRATION =   0.000000    
                           EVAPORATION =   0.000000                               EVAPORATION =   0.000000    
                             MASS LOSS =   0.000000                                 MASS LOSS =   0.000000    
                                         -------------------                                    --------------
                             TOTAL OUT =   7393.247                                 TOTAL OUT =   9.324554    

                        NET (IN - OUT) =  0.6835938E-02                        NET (IN - OUT) = -0.1907349E-05
                 DISCREPANCY (PERCENT) =  0.9246187E-04                 DISCREPANCY (PERCENT) = -0.2045512E-04
                                              FLOW ERR (QIN-QOUT-DV) = -0.9536743E-06 [L3/T]




 >>>>>>>>>>>>>>>>>>>>>>>>>>>>>>>>>>>>>>>>>>>>>>>>>>>>>>>FOR COMPONENT NO. 01<<<<<<<<<<<<<<<<<<<<<<<<<<<<<<<<<<<<<<<<<<<<<<<<<<<<<<<


                                            -------------------------------------------
                                                      TRANSPORT STEP NO.  245
                                            -------------------------------------------

 TOTAL ELAPSED TIME SINCE BEGINNING OF SIMULATION =   85500.00    D   
 .....................................................................

                     CUMULATIVE MASS BUDGETS AT END OF TRANSPORT STEP  245, TIME STEP    1, STRESS PERIOD    3
                     -----------------------------------------------------------------------------------------

                                                             IN                           OUT
                                                      ----------------             ----------------
                               CONSTANT CONCENTRATION:    0.000000                    0.000000    
                                        CONSTANT HEAD:    1067.238                   -592.6971    
                                               STREAM:    0.000000                   -474.5467    
                               MASS STOR (FLOW MODEL):   0.5161509E-02              -0.6986623E-07
                                MASS STORAGE (SOLUTE):    0.000000                    0.000000    
                            ---------------------------------------------------------------------------
                                              [TOTAL]:    1067.243     KG            -1067.244     KG  

                                                          NET (IN - OUT):  -0.9765625E-03
                                                   DISCREPANCY (PERCENT):  -0.9150327E-04
     2 CALLS TO GCG PACKAGE FOR TRANSPORT TIME STEP   246 IN FLOW TIME STEP     1 STRESS PERIOD     3
      2 TOTAL ITERATIONS
  MAXIMUM CONCENTRATION CHANGES FOR EACH ITERATION:
  MAX. CHANGE LAYER,ROW,COL MAX. CHANGE LAYER,ROW,COL MAX. CHANGE LAYER,ROW,COL MAX. CHANGE LAYER,ROW,COL MAX. CHANGE LAYER,ROW,COL
 ------------------------------------------------------------------------------------------------------------------------------------
    0.000     (  1,  1,  1)   0.000     (  1,  1,  1)


                     STREAM MASS BUDGETS AT END OF TRANSPORT STEP  246, TIME STEP    1, STRESS PERIOD    3 FOR COMPONENT   1
                     -------------------------------------------------------------------------------------------------------

                                         CUMULATIVE MASS [M]                                     MASS FOR THIS TIME STEP [M]
                                         -------------------                                    --------------
                      STREAM DEPLETION =   1924.823                          STREAM DEPLETION =  0.4714796E-03
                      INFLOW TO STREAM =   5002.210                          INFLOW TO STREAM =   8.325000    
                          GW TO STREAM =   475.5458                              GW TO STREAM =  0.9990391    
                         PRECIPITATION =   0.000000                             PRECIPITATION =   0.000000    
                                RUNOFF =   0.000000                                    RUNOFF =   0.000000    
                CONSTANT CONCENTRATION =   0.000000                    CONSTANT CONCENTRATION =   0.000000    
                             MASS GAIN =   0.000000                                 MASS GAIN =   0.000000    
                                         -------------------                                    --------------
                              TOTAL IN =   7402.579                                  TOTAL IN =   9.324510    

                   STREAM ACCUMULATION =   1924.828                       STREAM ACCUMULATION =  0.2604837E-05
                        STREAM OUTFLOW =   5477.744                            STREAM OUTFLOW =   9.324510    
                          STREAM TO GW =   0.000000                              STREAM TO GW =   0.000000    
                CONSTANT CONCENTRATION =   0.000000                    CONSTANT CONCENTRATION =   0.000000    
                           EVAPORATION =   0.000000                               EVAPORATION =   0.000000    
                             MASS LOSS =   0.000000                                 MASS LOSS =   0.000000    
                                         -------------------                                    --------------
                             TOTAL OUT =   7402.572                                 TOTAL OUT =   9.324512    

                        NET (IN - OUT) =  0.7324219E-02                        NET (IN - OUT) = -0.2861023E-05
                 DISCREPANCY (PERCENT) =  0.9894150E-04                 DISCREPANCY (PERCENT) = -0.3068282E-04
                                              FLOW ERR (QIN-QOUT-DV) = -0.9536743E-06 [L3/T]




 >>>>>>>>>>>>>>>>>>>>>>>>>>>>>>>>>>>>>>>>>>>>>>>>>>>>>>>FOR COMPONENT NO. 01<<<<<<<<<<<<<<<<<<<<<<<<<<<<<<<<<<<<<<<<<<<<<<<<<<<<<<<


                                            -------------------------------------------
                                                      TRANSPORT STEP NO.  246
                                            -------------------------------------------

 TOTAL ELAPSED TIME SINCE BEGINNING OF SIMULATION =   85680.00    D   
 .....................................................................

                     CUMULATIVE MASS BUDGETS AT END OF TRANSPORT STEP  246, TIME STEP    1, STRESS PERIOD    3
                     -----------------------------------------------------------------------------------------

                                                             IN                           OUT
                                                      ----------------             ----------------
                               CONSTANT CONCENTRATION:    0.000000                    0.000000    
                                        CONSTANT HEAD:    1069.484                   -593.9449    
                                               STREAM:    0.000000                   -475.5458    
                               MASS STOR (FLOW MODEL):   0.5161509E-02              -0.6986623E-07
                                MASS STORAGE (SOLUTE):    0.000000                    0.000000    
                            ---------------------------------------------------------------------------
                                              [TOTAL]:    1069.490     KG            -1069.491     KG  

                                                          NET (IN - OUT):  -0.1098633E-02
                                                   DISCREPANCY (PERCENT):  -0.1027249E-03
     2 CALLS TO GCG PACKAGE FOR TRANSPORT TIME STEP   247 IN FLOW TIME STEP     1 STRESS PERIOD     3
      2 TOTAL ITERATIONS
  MAXIMUM CONCENTRATION CHANGES FOR EACH ITERATION:
  MAX. CHANGE LAYER,ROW,COL MAX. CHANGE LAYER,ROW,COL MAX. CHANGE LAYER,ROW,COL MAX. CHANGE LAYER,ROW,COL MAX. CHANGE LAYER,ROW,COL
 ------------------------------------------------------------------------------------------------------------------------------------
    0.000     (  1,  1,  1)   0.000     (  1,  1,  1)


                     STREAM MASS BUDGETS AT END OF TRANSPORT STEP  247, TIME STEP    1, STRESS PERIOD    3 FOR COMPONENT   1
                     -------------------------------------------------------------------------------------------------------

                                         CUMULATIVE MASS [M]                                     MASS FOR THIS TIME STEP [M]
                                         -------------------                                    --------------
                      STREAM DEPLETION =   1924.823                          STREAM DEPLETION =  0.4328273E-03
                      INFLOW TO STREAM =   5010.536                          INFLOW TO STREAM =   8.325000    
                          GW TO STREAM =   476.5448                              GW TO STREAM =  0.9990391    
                         PRECIPITATION =   0.000000                             PRECIPITATION =   0.000000    
                                RUNOFF =   0.000000                                    RUNOFF =   0.000000    
                CONSTANT CONCENTRATION =   0.000000                    CONSTANT CONCENTRATION =   0.000000    
                             MASS GAIN =   0.000000                                 MASS GAIN =   0.000000    
                                         -------------------                                    --------------
                              TOTAL IN =   7411.904                                  TOTAL IN =   9.324471    

                   STREAM ACCUMULATION =   1924.828                       STREAM ACCUMULATION =  0.2500215E-05
                        STREAM OUTFLOW =   5487.068                            STREAM OUTFLOW =   9.324471    
                          STREAM TO GW =   0.000000                              STREAM TO GW =   0.000000    
                CONSTANT CONCENTRATION =   0.000000                    CONSTANT CONCENTRATION =   0.000000    
                           EVAPORATION =   0.000000                               EVAPORATION =   0.000000    
                             MASS LOSS =   0.000000                                 MASS LOSS =   0.000000    
                                         -------------------                                    --------------
                             TOTAL OUT =   7411.896                                 TOTAL OUT =   9.324474    

                        NET (IN - OUT) =  0.7324219E-02                        NET (IN - OUT) = -0.2861023E-05
                 DISCREPANCY (PERCENT) =  0.9881701E-04                 DISCREPANCY (PERCENT) = -0.3068295E-04
                                              FLOW ERR (QIN-QOUT-DV) = -0.9536743E-06 [L3/T]




 >>>>>>>>>>>>>>>>>>>>>>>>>>>>>>>>>>>>>>>>>>>>>>>>>>>>>>>FOR COMPONENT NO. 01<<<<<<<<<<<<<<<<<<<<<<<<<<<<<<<<<<<<<<<<<<<<<<<<<<<<<<<


                                            -------------------------------------------
                                                      TRANSPORT STEP NO.  247
                                            -------------------------------------------

 TOTAL ELAPSED TIME SINCE BEGINNING OF SIMULATION =   85860.00    D   
 .....................................................................

                     CUMULATIVE MASS BUDGETS AT END OF TRANSPORT STEP  247, TIME STEP    1, STRESS PERIOD    3
                     -----------------------------------------------------------------------------------------

                                                             IN                           OUT
                                                      ----------------             ----------------
                               CONSTANT CONCENTRATION:    0.000000                    0.000000    
                                        CONSTANT HEAD:    1071.731                   -595.1927    
                                               STREAM:    0.000000                   -476.5448    
                               MASS STOR (FLOW MODEL):   0.5161509E-02              -0.6986623E-07
                                MASS STORAGE (SOLUTE):    0.000000                    0.000000    
                            ---------------------------------------------------------------------------
                                              [TOTAL]:    1071.736     KG            -1071.738     KG  

                                                          NET (IN - OUT):  -0.1098633E-02
                                                   DISCREPANCY (PERCENT):  -0.1025095E-03
     2 CALLS TO GCG PACKAGE FOR TRANSPORT TIME STEP   248 IN FLOW TIME STEP     1 STRESS PERIOD     3
      2 TOTAL ITERATIONS
  MAXIMUM CONCENTRATION CHANGES FOR EACH ITERATION:
  MAX. CHANGE LAYER,ROW,COL MAX. CHANGE LAYER,ROW,COL MAX. CHANGE LAYER,ROW,COL MAX. CHANGE LAYER,ROW,COL MAX. CHANGE LAYER,ROW,COL
 ------------------------------------------------------------------------------------------------------------------------------------
    0.000     (  1,  1,  1)   0.000     (  1,  1,  1)


                     STREAM MASS BUDGETS AT END OF TRANSPORT STEP  248, TIME STEP    1, STRESS PERIOD    3 FOR COMPONENT   1
                     -------------------------------------------------------------------------------------------------------

                                         CUMULATIVE MASS [M]                                     MASS FOR THIS TIME STEP [M]
                                         -------------------                                    --------------
                      STREAM DEPLETION =   1924.824                          STREAM DEPLETION =  0.3973352E-03
                      INFLOW TO STREAM =   5018.861                          INFLOW TO STREAM =   8.325000    
                          GW TO STREAM =   477.5439                              GW TO STREAM =  0.9990391    
                         PRECIPITATION =   0.000000                             PRECIPITATION =   0.000000    
                                RUNOFF =   0.000000                                    RUNOFF =   0.000000    
                CONSTANT CONCENTRATION =   0.000000                    CONSTANT CONCENTRATION =   0.000000    
                             MASS GAIN =   0.000000                                 MASS GAIN =   0.000000    
                                         -------------------                                    --------------
                              TOTAL IN =   7421.229                                  TOTAL IN =   9.324436    

                   STREAM ACCUMULATION =   1924.828                       STREAM ACCUMULATION =  0.2399782E-05
                        STREAM OUTFLOW =   5496.393                            STREAM OUTFLOW =   9.324436    
                          STREAM TO GW =   0.000000                              STREAM TO GW =   0.000000    
                CONSTANT CONCENTRATION =   0.000000                    CONSTANT CONCENTRATION =   0.000000    
                           EVAPORATION =   0.000000                               EVAPORATION =   0.000000    
                             MASS LOSS =   0.000000                                 MASS LOSS =   0.000000    
                                         -------------------                                    --------------
                             TOTAL OUT =   7421.221                                 TOTAL OUT =   9.324439    

                        NET (IN - OUT) =  0.7812500E-02                        NET (IN - OUT) = -0.2861023E-05
                 DISCREPANCY (PERCENT) =  0.1052724E-03                 DISCREPANCY (PERCENT) = -0.3068306E-04
                                              FLOW ERR (QIN-QOUT-DV) = -0.9536743E-06 [L3/T]




 >>>>>>>>>>>>>>>>>>>>>>>>>>>>>>>>>>>>>>>>>>>>>>>>>>>>>>>FOR COMPONENT NO. 01<<<<<<<<<<<<<<<<<<<<<<<<<<<<<<<<<<<<<<<<<<<<<<<<<<<<<<<


                                            -------------------------------------------
                                                      TRANSPORT STEP NO.  248
                                            -------------------------------------------

 TOTAL ELAPSED TIME SINCE BEGINNING OF SIMULATION =   86040.00    D   
 .....................................................................

                     CUMULATIVE MASS BUDGETS AT END OF TRANSPORT STEP  248, TIME STEP    1, STRESS PERIOD    3
                     -----------------------------------------------------------------------------------------

                                                             IN                           OUT
                                                      ----------------             ----------------
                               CONSTANT CONCENTRATION:    0.000000                    0.000000    
                                        CONSTANT HEAD:    1073.978                   -596.4405    
                                               STREAM:    0.000000                   -477.5439    
                               MASS STOR (FLOW MODEL):   0.5161509E-02              -0.6986623E-07
                                MASS STORAGE (SOLUTE):    0.000000                    0.000000    
                            ---------------------------------------------------------------------------
                                              [TOTAL]:    1073.983     KG            -1073.984     KG  

                                                          NET (IN - OUT):  -0.1098633E-02
                                                   DISCREPANCY (PERCENT):  -0.1022951E-03
     2 CALLS TO GCG PACKAGE FOR TRANSPORT TIME STEP   249 IN FLOW TIME STEP     1 STRESS PERIOD     3
      2 TOTAL ITERATIONS
  MAXIMUM CONCENTRATION CHANGES FOR EACH ITERATION:
  MAX. CHANGE LAYER,ROW,COL MAX. CHANGE LAYER,ROW,COL MAX. CHANGE LAYER,ROW,COL MAX. CHANGE LAYER,ROW,COL MAX. CHANGE LAYER,ROW,COL
 ------------------------------------------------------------------------------------------------------------------------------------
    0.000     (  1,  1,  1)   0.000     (  1,  1,  1)


                     STREAM MASS BUDGETS AT END OF TRANSPORT STEP  249, TIME STEP    1, STRESS PERIOD    3 FOR COMPONENT   1
                     -------------------------------------------------------------------------------------------------------

                                         CUMULATIVE MASS [M]                                     MASS FOR THIS TIME STEP [M]
                                         -------------------                                    --------------
                      STREAM DEPLETION =   1924.824                          STREAM DEPLETION =  0.3647458E-03
                      INFLOW TO STREAM =   5027.186                          INFLOW TO STREAM =   8.325000    
                          GW TO STREAM =   478.5429                              GW TO STREAM =  0.9990391    
                         PRECIPITATION =   0.000000                             PRECIPITATION =   0.000000    
                                RUNOFF =   0.000000                                    RUNOFF =   0.000000    
                CONSTANT CONCENTRATION =   0.000000                    CONSTANT CONCENTRATION =   0.000000    
                             MASS GAIN =   0.000000                                 MASS GAIN =   0.000000    
                                         -------------------                                    --------------
                              TOTAL IN =   7430.553                                  TOTAL IN =   9.324403    

                   STREAM ACCUMULATION =   1924.828                       STREAM ACCUMULATION =  0.2303372E-05
                        STREAM OUTFLOW =   5505.717                            STREAM OUTFLOW =   9.324404    
                          STREAM TO GW =   0.000000                              STREAM TO GW =   0.000000    
                CONSTANT CONCENTRATION =   0.000000                    CONSTANT CONCENTRATION =   0.000000    
                           EVAPORATION =   0.000000                               EVAPORATION =   0.000000    
                             MASS LOSS =   0.000000                                 MASS LOSS =   0.000000    
                                         -------------------                                    --------------
                             TOTAL OUT =   7430.545                                 TOTAL OUT =   9.324406    

                        NET (IN - OUT) =  0.7812500E-02                        NET (IN - OUT) = -0.2861023E-05
                 DISCREPANCY (PERCENT) =  0.1051403E-03                 DISCREPANCY (PERCENT) = -0.3068317E-04
                                              FLOW ERR (QIN-QOUT-DV) = -0.9536743E-06 [L3/T]




 >>>>>>>>>>>>>>>>>>>>>>>>>>>>>>>>>>>>>>>>>>>>>>>>>>>>>>>FOR COMPONENT NO. 01<<<<<<<<<<<<<<<<<<<<<<<<<<<<<<<<<<<<<<<<<<<<<<<<<<<<<<<


                                            -------------------------------------------
                                                      TRANSPORT STEP NO.  249
                                            -------------------------------------------

 TOTAL ELAPSED TIME SINCE BEGINNING OF SIMULATION =   86220.00    D   
 .....................................................................

                     CUMULATIVE MASS BUDGETS AT END OF TRANSPORT STEP  249, TIME STEP    1, STRESS PERIOD    3
                     -----------------------------------------------------------------------------------------

                                                             IN                           OUT
                                                      ----------------             ----------------
                               CONSTANT CONCENTRATION:    0.000000                    0.000000    
                                        CONSTANT HEAD:    1076.225                   -597.6883    
                                               STREAM:    0.000000                   -478.5429    
                               MASS STOR (FLOW MODEL):   0.5161509E-02              -0.6986623E-07
                                MASS STORAGE (SOLUTE):    0.000000                    0.000000    
                            ---------------------------------------------------------------------------
                                              [TOTAL]:    1076.230     KG            -1076.231     KG  

                                                          NET (IN - OUT):  -0.1098633E-02
                                                   DISCREPANCY (PERCENT):  -0.1020815E-03
     2 CALLS TO GCG PACKAGE FOR TRANSPORT TIME STEP   250 IN FLOW TIME STEP     1 STRESS PERIOD     3
      2 TOTAL ITERATIONS
  MAXIMUM CONCENTRATION CHANGES FOR EACH ITERATION:
  MAX. CHANGE LAYER,ROW,COL MAX. CHANGE LAYER,ROW,COL MAX. CHANGE LAYER,ROW,COL MAX. CHANGE LAYER,ROW,COL MAX. CHANGE LAYER,ROW,COL
 ------------------------------------------------------------------------------------------------------------------------------------
    0.000     (  1,  1,  1)   0.000     (  1,  1,  1)


                     STREAM MASS BUDGETS AT END OF TRANSPORT STEP  250, TIME STEP    1, STRESS PERIOD    3 FOR COMPONENT   1
                     -------------------------------------------------------------------------------------------------------

                                         CUMULATIVE MASS [M]                                     MASS FOR THIS TIME STEP [M]
                                         -------------------                                    --------------
                      STREAM DEPLETION =   1924.824                          STREAM DEPLETION =  0.3348232E-03
                      INFLOW TO STREAM =   5035.511                          INFLOW TO STREAM =   8.325000    
                          GW TO STREAM =   479.5420                              GW TO STREAM =  0.9990391    
                         PRECIPITATION =   0.000000                             PRECIPITATION =   0.000000    
                                RUNOFF =   0.000000                                    RUNOFF =   0.000000    
                CONSTANT CONCENTRATION =   0.000000                    CONSTANT CONCENTRATION =   0.000000    
                             MASS GAIN =   0.000000                                 MASS GAIN =   0.000000    
                                         -------------------                                    --------------
                              TOTAL IN =   7439.877                                  TOTAL IN =   9.324373    

                   STREAM ACCUMULATION =   1924.828                       STREAM ACCUMULATION =  0.2210821E-05
                        STREAM OUTFLOW =   5515.041                            STREAM OUTFLOW =   9.324373    
                          STREAM TO GW =   0.000000                              STREAM TO GW =   0.000000    
                CONSTANT CONCENTRATION =   0.000000                    CONSTANT CONCENTRATION =   0.000000    
                           EVAPORATION =   0.000000                               EVAPORATION =   0.000000    
                             MASS LOSS =   0.000000                                 MASS LOSS =   0.000000    
                                         -------------------                                    --------------
                             TOTAL OUT =   7439.869                                 TOTAL OUT =   9.324375    

                        NET (IN - OUT) =  0.8300781E-02                        NET (IN - OUT) = -0.1907349E-05
                 DISCREPANCY (PERCENT) =  0.1115715E-03                 DISCREPANCY (PERCENT) = -0.2045551E-04
                                              FLOW ERR (QIN-QOUT-DV) = -0.9536743E-06 [L3/T]




 >>>>>>>>>>>>>>>>>>>>>>>>>>>>>>>>>>>>>>>>>>>>>>>>>>>>>>>FOR COMPONENT NO. 01<<<<<<<<<<<<<<<<<<<<<<<<<<<<<<<<<<<<<<<<<<<<<<<<<<<<<<<


                                            -------------------------------------------
                                                      TRANSPORT STEP NO.  250
                                            -------------------------------------------

 TOTAL ELAPSED TIME SINCE BEGINNING OF SIMULATION =   86400.00    D   
 .....................................................................

                     CUMULATIVE MASS BUDGETS AT END OF TRANSPORT STEP  250, TIME STEP    1, STRESS PERIOD    3
                     -----------------------------------------------------------------------------------------

                                                             IN                           OUT
                                                      ----------------             ----------------
                               CONSTANT CONCENTRATION:    0.000000                    0.000000    
                                        CONSTANT HEAD:    1078.472                   -598.9361    
                                               STREAM:    0.000000                   -479.5420    
                               MASS STOR (FLOW MODEL):   0.5161509E-02              -0.6986623E-07
                                MASS STORAGE (SOLUTE):    0.000000                    0.000000    
                            ---------------------------------------------------------------------------
                                              [TOTAL]:    1078.477     KG            -1078.478     KG  

                                                          NET (IN - OUT):  -0.1098633E-02
                                                   DISCREPANCY (PERCENT):  -0.1018689E-03
  ----- 
 | M T |
 | 3 D | END OF MODEL OUTPUT
  ----- 
