                                   MODFLOW 6
                U.S. GEOLOGICAL SURVEY MODULAR HYDROLOGIC MODEL
                          GROUNDWATER FLOW MODEL (GWF)
                            VERSION 6.4.2 06/28/2023
                               ***DEVELOP MODE***

        MODFLOW 6 compiled Oct  4 2023 09:03:27 with GCC version 11.3.0

This software has been approved for release by the U.S. Geological 
Survey (USGS). Although the software has been subjected to rigorous 
review, the USGS reserves the right to update the software as needed 
pursuant to further analysis and review. No warranty, expressed or 
implied, is made by the USGS or the U.S. Government as to the 
functionality of the software and related material nor shall the 
fact of release constitute any such warranty. Furthermore, the 
software is released on condition that neither the USGS nor the U.S. 
Government shall be held liable for any damages resulting from its 
authorized or unauthorized use. Also refer to the USGS Water 
Resources Software User Rights Notice for complete use, copyright, 
and distribution information.


As a work of the United States Government, this USGS product is 
in the public domain within the United States. You can copy, 
modify, distribute, and perform the work, even for commercial 
purposes, all without asking permission. Additionally, USGS 
waives copyright and related rights in the work worldwide 
through CC0 1.0 Universal Public Domain Dedication 
(https://creativecommons.org/publicdomain/zero/1.0/).

The following GNU Lesser General Public License (LGPL) libraries
are used in this USGS product:

    SPARSKIT version 2.0
      ilut, luson, and qsplit 
      (https://www-users.cse.umn.edu/~saad/software/SPARSKIT/)

    RCM - Reverse Cuthill McKee Ordering
      (https://people.math.sc.edu/Burkardt/f_src/rcm/rcm.html)

    BLAS - Basic Linear Algebra Subprograms Level 1
      (https://people.math.sc.edu/Burkardt/f_src/blas1_d/blas1_d.html)

    SPARSEKIT - Sparse Matrix Utility Package
      amux, dperm, dvperm, rperm, and cperm
      (https://people.sc.fsu.edu/~jburkardt/f77_src/sparsekit/sparsekit.html)

The following BSD-3 License libraries are used in this USGS product:

    Modern Fortran DAG Library
      Copyright (c) 2018, Jacob Williams
      All rights reserved.
      (https://github.com/jacobwilliams/daglib)

MODFLOW 6 compiler options: -fdiagnostics-color=always -cpp -I
src/libmf6core.a.p -I src -I ../mf6.4.2_linux/src -I src/libmf6_external.a.p
-imultiarch x86_64-linux-gnu -D _FILE_OFFSET_BITS=64 -D __linux__
-mtune=generic -march=x86-64 -O2 -Wall -Wpedantic -Wcharacter-truncation
-Wno-unused-dummy-argument -Wno-intrinsic-shadow -Wno-maybe-uninitialized
-Wno-uninitialized -std=f2008 -fall-intrinsics -ffpe-summary=overflow
-ffpe-trap=overflow,zero,invalid -fPIC -J src/libmf6core.a.p
-fpre-include=/usr/include/finclude/math-vector-fortran.h

System command used to initiate simulation:
/home/mreno/.clone/usgs/w/netcdf/2/modflow6/bin/rebuilt/mf6

MODFLOW was compiled using uniform precision.

Real Variables
  KIND: 8
  TINY (smallest non-zero value):    2.225074-308
  HUGE (largest value):    1.797693+308
  PRECISION: 15
  SIZE IN BITS: 64

Integer Variables
  KIND: 4
  HUGE (largest value): 2147483647
  SIZE IN BITS: 32

Long Integer Variables
  KIND: 8
  HUGE (largest value): 9223372036854775807
  SIZE IN BITS: 64

Logical Variables
  KIND: 4
  SIZE IN BITS: 32

 NAMEFILE OPTIONS:
 END NAMEFILE OPTIONS:

 DIS -- STRUCTURED GRID DISCRETIZATION PACKAGE, VERSION 2 : 3/27/2014 - INPUT READ FROM MEMPATH: __INPUT__/CSUB_SUB03A/DIS                         


 NPF -- NODE PROPERTY FLOW PACKAGE, VERSION 1, 3/30/2015 INPUT READ FROM MEMPATH: __INPUT__/CSUB_SUB03A/NPF                         

 Setting Discretization Options
 End Setting Discretization Options

 Setting Discretization Dimensions
    NLAY = 3
    NROW = 10
    NCOL = 10
 End Setting Discretization Dimensions

 Setting Discretization Griddata
    DELR set from input file
    DELC set from input file
    TOP set from input file
    BOTM set from input file
 End Setting Discretization Griddata

 Setting NPF Options
 End Setting NPF Options

 Setting NPF Griddata
    ICELLTYPE set from input file
    K set from input file
    K33 set from input file
    K22 not provided.  Setting K22 = K.
 End Setting NPF Griddata


 WEL   -- WEL PACKAGE, VERSION 8, 2/22/2014 INPUT READ FROM UNIT 1008
 # File generated by Flopy version 3.5.0.dev0 on 10/30/2023 at 09:02:45.

 PROCESSING WEL OPTIONS
    LISTS OF WEL CELLS WILL BE PRINTED.
    WEL FLOWS WILL BE PRINTED TO LISTING FILE.
 END OF WEL OPTIONS

 PROCESSING WEL DIMENSIONS
    MAXBOUND =       4
 END OF WEL DIMENSIONS

 RCH   -- RCH PACKAGE, VERSION 8, 2/22/2014 INPUT READ FROM UNIT 1009
 # File generated by Flopy version 3.5.0.dev0 on 10/30/2023 at 09:02:45.

 PROCESSING RCH OPTIONS
    RECHARGE INPUT WILL BE READ AS ARRAY(S).
 END OF RCHA OPTIONS

 CHD   -- CHD PACKAGE, VERSION 8, 2/22/2014 INPUT READ FROM UNIT 1010
 # File generated by Flopy version 3.5.0.dev0 on 10/30/2023 at 09:02:45.

 PROCESSING CHD OPTIONS
 END OF CHD OPTIONS

 PROCESSING CHD DIMENSIONS
    MAXBOUND =       4
 END OF CHD DIMENSIONS

 IC -- INITIAL CONDITIONS PACKAGE, VERSION 8, 3/28/2015 INPUT READ FROM UNIT 1006
 # File generated by Flopy version 3.5.0.dev0 on 10/30/2023 at 09:02:45.
 PROCESSING GRIDDATA

     INITIAL HEAD =   0.000000    
 END PROCESSING GRIDDATA

 STO -- STORAGE PACKAGE, VERSION 1, 5/19/2014 INPUT READ FROM UNIT 1005


 # File generated by Flopy version 3.5.0.dev0 on 10/30/2023 at 09:02:45.
 PROCESSING STORAGE OPTIONS
    STORAGECOEFFICIENT OPTION:
 Read storage coefficient rather than specific storage
 END OF STORAGE OPTIONS
 PROCESSING GRIDDATA

                 ICONVERT = 0 FOR LAYER 1

                 ICONVERT = 0 FOR LAYER 2

                 ICONVERT = 0 FOR LAYER 3

         SPECIFIC STORAGE =   0.000000    

           SPECIFIC YIELD =  0.1000000     FOR LAYER 1

           SPECIFIC YIELD =   0.000000     FOR LAYER 2

           SPECIFIC YIELD =   0.000000     FOR LAYER 3
 END PROCESSING GRIDDATA

 CSUB -- COMPACTION PACKAGE, VERSION 1, 12/15/2019 INPUT READ FROM UNIT 1011


 # File generated by Flopy version 3.5.0.dev0 on 10/30/2023 at 09:02:45.
 PROCESSING CSUB OPTIONS
    CSUB BOUNDARIES HAVE NAMES IN LAST COLUMN.
    LISTS OF CSUB CELLS WILL BE PRINTED.
    FLOWS WILL BE SAVED TO BUDGET FILE SPECIFIED IN OUTPUT CONTROL

 OPENED csub_sub03a.ib.strain.csv
 FILE TYPE:CSV_OUTPUT   UNIT 1015   STATUS:REPLACE             
 FORMAT:FORMATTED              ACCESS:SEQUENTIAL          
 ACTION:READWRITE           

    CSUB  INTERBED STRAIN CSV  WILL BE SAVED TO FILE: csub_sub03a.ib.strain.csv                                                                                                                                                                                                                                                                                                                                                                                                                                                                                                                                                                                                                                                                                                                                                                                                                                                                                                                                                                                                                                                                                                                                                                                                                                                                                                                                                                                                                                                                                                                                                                                                                                                                                                                                                                                                                                                                                                                                                                                                                                                                                                                                                                                                                                                                                                                                                                                                                                                                                                                                                                                                                                                                                                                                                                                                                                                                                                                                                                                                                                                                                                                                                                                                                                                                                                                                                                                                                                                                                                                                                                                                                                                                                                                                                                                                                                                                                                                                                                                                                                                                                                                                                                                                                                                                                                                                                                                                                                                                                                                                                                                                                                                                                                                                                                                                                                                                                                                                                                                                                                                                                                                                                                               
    OPENED ON UNIT:    1015

 OPENED csub_sub03a.sk.strain.csv
 FILE TYPE:CSV_OUTPUT   UNIT 1016   STATUS:REPLACE             
 FORMAT:FORMATTED              ACCESS:SEQUENTIAL          
 ACTION:READWRITE           

    CSUB  COARSE STRAIN CSV  WILL BE SAVED TO FILE: csub_sub03a.sk.strain.csv                                                                                                                                                                                                                                                                                                                                                                                                                                                                                                                                                                                                                                                                                                                                                                                                                                                                                                                                                                                                                                                                                                                                                                                                                                                                                                                                                                                                                                                                                                                                                                                                                                                                                                                                                                                                                                                                                                                                                                                                                                                                                                                                                                                                                                                                                                                                                                                                                                                                                                                                                                                                                                                                                                                                                                                                                                                                                                                                                                                                                                                                                                                                                                                                                                                                                                                                                                                                                                                                                                                                                                                                                                                                                                                                                                                                                                                                                                                                                                                                                                                                                                                                                                                                                                                                                                                                                                                                                                                                                                                                                                                                                                                                                                                                                                                                                                                                                                                                                                                                                                                                                                                                                                               
    OPENED ON UNIT:    1016

 OPENED csub_sub03a.compaction.gridbin
 FILE TYPE:DATA(BINARY)   UNIT 1017   STATUS:REPLACE             
 FORMAT:UNFORMATTED            ACCESS:STREAM              
 ACTION:READWRITE           

    CSUB  COMPACTION  WILL BE SAVED TO FILE: csub_sub03a.compaction.gridbin                                                                                                                                                                                                                                                                                                                                                                                                                                                                                                                                                                                                                                                                                                                                                                                                                                                                                                                                                                                                                                                                                                                                                                                                                                                                                                                                                                                                                                                                                                                                                                                                                                                                                                                                                                                                                                                                                                                                                                                                                                                                                                                                                                                                                                                                                                                                                                                                                                                                                                                                                                                                                                                                                                                                                                                                                                                                                                                                                                                                                                                                                                                                                                                                                                                                                                                                                                                                                                                                                                                                                                                                                                                                                                                                                                                                                                                                                                                                                                                                                                                                                                                                                                                                                                                                                                                                                                                                                                                                                                                                                                                                                                                                                                                                                                                                                                                                                                                                                                                                                                                                                                                                                                          
    OPENED ON UNIT:    1017

 OPENED csub_sub03a.csub.obs
 FILE TYPE:OBS   UNIT 1018   STATUS:OLD                 
 FORMAT:FORMATTED              ACCESS:SEQUENTIAL          
 ACTION:READ                

 END OF CSUB OPTIONS


 CSUB PACKAGE SETTINGS
    NUMBER OF DELAY CELLS = 19
    HEAD-BASED FORMULATION
    ELASTIC AND INELASTIC SPECIFIC STORAGE COEFFICIENTS WILL BE 
      SPECIFIED
    THICKNESS AND VOID RATIO WILL NOT BE ADJUSTED DURING THE
      SIMULATION
    INTERBED THICKNESS WILL BE SPECIFIED AS A THICKNESS
    PRECONSOLIDATION HEAD WILL BE SPECIFIED AS ABSOLUTE VALUES
      INSTEAD OF RELATIVE TO INITIAL HEAD CONDITIONS
    DELAY INTERBED HEADS WILL BE SPECIFIED AS ABSOLUTE VALUES INSTEAD
      OF RELATIVE TO INITIAL GWF HEADS
    EFFECTIVE_STRESS_LAG HAS BEEN SPECIFIED BUT HAS NO EFFECT WHEN
      USING THE HEAD-BASED FORMULATION (HEAD_BASED HAS BEEN SPECIFIED
      IN THE OPTIONS BLOCK)
    GAMMAW        = 9806.6499999999996
    BETA          = 0.0000000000000000
    GAMMAW * BETA = 0.0000000000000000

 PROCESSING CSUB DIMENSIONS
    NINTERBEDS = 296
 END OF CSUB DIMENSIONS

The observation utility is active for "CSUB"
 # File generated by Flopy version 3.5.0.dev0 on 10/30/2023 at 09:02:45.

Processing observation options:

Text output number of digits of precision set to: 10
The PRINT_INPUT option has been specified.


 OBSERVATIONS READ FROM FILE "csub_sub03a.csub.obs"
 ----------------------------------------------------------------------------------------------------------------------------------------------------------------------------------------------------------------------------
 NAME                                     TYPE                                       TIME         LOCATION DATA                              OUTPUT FILENAME                                                                 
 ----------------------------------------------------------------------------------------------------------------------------------------------------------------------------------------------------------------------------
 TCOMP1                                   CONTINUOUS  INTERBED-COMPACTION            ALL TIMES    "  01_05_05"                               csub_obs.csv                                                                    
 TCOMP2                                   CONTINUOUS  INTERBED-COMPACTION            ALL TIMES    "  02_05_05"                               csub_obs.csv                                                                    
 TCOMP3                                   CONTINUOUS  INTERBED-COMPACTION            ALL TIMES    "  03_05_05"                               csub_obs.csv                                                                    
 ----------------------------------------------------------------------------------------------------------------------------------------------------------------------------------------------------------------------------



 CG_SKE_CR =  0.3000000E-05 FOR LAYER 1

 CG_SKE_CR =   0.000000     FOR LAYER 2

 CG_SKE_CR =  0.3000000E-05 FOR LAYER 3

 CG_THETA =  0.2000000    

 PROCESSING CSUB PACKAGEDATA
 END OF CSUB PACKAGEDATA

 CSUB PACKAGE INTERBED DATA
 ---------------------------------------------------------------------------------------------------------------------------------------------------------------------------
 INTERBED          CELLID          CDELAY      PCS       THICK       RNB       SSV_CC     SSV_CR     THETA        KV         H0     BOUNDNAME                               
 ---------------------------------------------------------------------------------------------------------------------------------------------------------------------------
 1                (1,1,1)         NODELAY   -7.00       15.0       1.00       6.000E-04  6.000E-06  0.451         -          -      01_01_01                                
 2                (1,1,2)         NODELAY   -7.00       15.0       1.00       6.000E-04  6.000E-06  0.451         -          -      01_01_02                                
 3                (1,1,3)         NODELAY   -7.00       15.0       1.00       6.000E-04  6.000E-06  0.451         -          -      01_01_03                                
 4                (1,1,4)         NODELAY   -7.00       15.0       1.00       6.000E-04  6.000E-06  0.451         -          -      01_01_04                                
 5                (1,1,5)         NODELAY   -7.00       15.0       1.00       6.000E-04  6.000E-06  0.451         -          -      01_01_05                                
 6                (1,1,6)         NODELAY   -7.00       15.0       1.00       6.000E-04  6.000E-06  0.451         -          -      01_01_06                                
 7                (1,1,7)         NODELAY   -7.00       15.0       1.00       6.000E-04  6.000E-06  0.451         -          -      01_01_07                                
 8                (1,1,8)         NODELAY   -7.00       15.0       1.00       6.000E-04  6.000E-06  0.451         -          -      01_01_08                                
 9                (1,1,9)         NODELAY   -7.00       15.0       1.00       6.000E-04  6.000E-06  0.451         -          -      01_01_09                                
 10               (1,1,10)        NODELAY   -7.00       15.0       1.00       6.000E-04  6.000E-06  0.451         -          -      01_01_10                                
 11               (1,2,1)         NODELAY   -7.00       15.0       1.00       6.000E-04  6.000E-06  0.451         -          -      01_02_01                                
 12               (1,2,2)         NODELAY   -7.00       15.0       1.00       6.000E-04  6.000E-06  0.451         -          -      01_02_02                                
 13               (1,2,3)         NODELAY   -7.00       15.0       1.00       6.000E-04  6.000E-06  0.451         -          -      01_02_03                                
 14               (1,2,4)         NODELAY   -7.00       15.0       1.00       6.000E-04  6.000E-06  0.451         -          -      01_02_04                                
 15               (1,2,5)         NODELAY   -7.00       15.0       1.00       6.000E-04  6.000E-06  0.451         -          -      01_02_05                                
 16               (1,2,6)         NODELAY   -7.00       15.0       1.00       6.000E-04  6.000E-06  0.451         -          -      01_02_06                                
 17               (1,2,7)         NODELAY   -7.00       15.0       1.00       6.000E-04  6.000E-06  0.451         -          -      01_02_07                                
 18               (1,2,8)         NODELAY   -7.00       15.0       1.00       6.000E-04  6.000E-06  0.451         -          -      01_02_08                                
 19               (1,2,9)         NODELAY   -7.00       15.0       1.00       6.000E-04  6.000E-06  0.451         -          -      01_02_09                                
 20               (1,2,10)        NODELAY   -7.00       15.0       1.00       6.000E-04  6.000E-06  0.451         -          -      01_02_10                                
 21               (1,3,1)         NODELAY   -7.00       15.0       1.00       6.000E-04  6.000E-06  0.451         -          -      01_03_01                                
 22               (1,3,2)         NODELAY   -7.00       15.0       1.00       6.000E-04  6.000E-06  0.451         -          -      01_03_02                                
 23               (1,3,3)         NODELAY   -7.00       15.0       1.00       6.000E-04  6.000E-06  0.451         -          -      01_03_03                                
 24               (1,3,4)         NODELAY   -7.00       15.0       1.00       6.000E-04  6.000E-06  0.451         -          -      01_03_04                                
 25               (1,3,5)         NODELAY   -7.00       15.0       1.00       6.000E-04  6.000E-06  0.451         -          -      01_03_05                                
 26               (1,3,6)         NODELAY   -7.00       15.0       1.00       6.000E-04  6.000E-06  0.451         -          -      01_03_06                                
 27               (1,3,7)         NODELAY   -7.00       15.0       1.00       6.000E-04  6.000E-06  0.451         -          -      01_03_07                                
 28               (1,3,8)         NODELAY   -7.00       15.0       1.00       6.000E-04  6.000E-06  0.451         -          -      01_03_08                                
 29               (1,3,9)         NODELAY   -7.00       15.0       1.00       6.000E-04  6.000E-06  0.451         -          -      01_03_09                                
 30               (1,3,10)        NODELAY   -7.00       15.0       1.00       6.000E-04  6.000E-06  0.451         -          -      01_03_10                                
 31               (1,4,1)         NODELAY   -7.00       15.0       1.00       6.000E-04  6.000E-06  0.451         -          -      01_04_01                                
 32               (1,4,2)         NODELAY   -7.00       15.0       1.00       6.000E-04  6.000E-06  0.451         -          -      01_04_02                                
 33               (1,4,3)         NODELAY   -7.00       15.0       1.00       6.000E-04  6.000E-06  0.451         -          -      01_04_03                                
 34               (1,4,4)         NODELAY   -7.00       15.0       1.00       6.000E-04  6.000E-06  0.451         -          -      01_04_04                                
 35               (1,4,5)         NODELAY   -7.00       15.0       1.00       6.000E-04  6.000E-06  0.451         -          -      01_04_05                                
 36               (1,4,6)         NODELAY   -7.00       15.0       1.00       6.000E-04  6.000E-06  0.451         -          -      01_04_06                                
 37               (1,4,7)         NODELAY   -7.00       15.0       1.00       6.000E-04  6.000E-06  0.451         -          -      01_04_07                                
 38               (1,4,8)         NODELAY   -7.00       15.0       1.00       6.000E-04  6.000E-06  0.451         -          -      01_04_08                                
 39               (1,4,9)         NODELAY   -7.00       15.0       1.00       6.000E-04  6.000E-06  0.451         -          -      01_04_09                                
 40               (1,4,10)        NODELAY   -7.00       15.0       1.00       6.000E-04  6.000E-06  0.451         -          -      01_04_10                                
 41               (1,5,1)         NODELAY   -7.00       15.0       1.00       6.000E-04  6.000E-06  0.451         -          -      01_05_01                                
 42               (1,5,2)         NODELAY   -7.00       15.0       1.00       6.000E-04  6.000E-06  0.451         -          -      01_05_02                                
 43               (1,5,3)         NODELAY   -7.00       15.0       1.00       6.000E-04  6.000E-06  0.451         -          -      01_05_03                                
 44               (1,5,4)         NODELAY   -7.00       15.0       1.00       6.000E-04  6.000E-06  0.451         -          -      01_05_04                                
 45               (1,5,5)         NODELAY   -7.00       15.0       1.00       6.000E-04  6.000E-06  0.451         -          -      01_05_05                                
 46               (1,5,6)         NODELAY   -7.00       15.0       1.00       6.000E-04  6.000E-06  0.451         -          -      01_05_06                                
 47               (1,5,7)         NODELAY   -7.00       15.0       1.00       6.000E-04  6.000E-06  0.451         -          -      01_05_07                                
 48               (1,5,8)         NODELAY   -7.00       15.0       1.00       6.000E-04  6.000E-06  0.451         -          -      01_05_08                                
 49               (1,5,9)         NODELAY   -7.00       15.0       1.00       6.000E-04  6.000E-06  0.451         -          -      01_05_09                                
 50               (1,5,10)        NODELAY   -7.00       15.0       1.00       6.000E-04  6.000E-06  0.451         -          -      01_05_10                                
 51               (1,6,1)         NODELAY   -7.00       15.0       1.00       6.000E-04  6.000E-06  0.451         -          -      01_06_01                                
 52               (1,6,2)         NODELAY   -7.00       15.0       1.00       6.000E-04  6.000E-06  0.451         -          -      01_06_02                                
 53               (1,6,3)         NODELAY   -7.00       15.0       1.00       6.000E-04  6.000E-06  0.451         -          -      01_06_03                                
 54               (1,6,4)         NODELAY   -7.00       15.0       1.00       6.000E-04  6.000E-06  0.451         -          -      01_06_04                                
 55               (1,6,5)         NODELAY   -7.00       15.0       1.00       6.000E-04  6.000E-06  0.451         -          -      01_06_05                                
 56               (1,6,6)         NODELAY   -7.00       15.0       1.00       6.000E-04  6.000E-06  0.451         -          -      01_06_06                                
 57               (1,6,7)         NODELAY   -7.00       15.0       1.00       6.000E-04  6.000E-06  0.451         -          -      01_06_07                                
 58               (1,6,8)         NODELAY   -7.00       15.0       1.00       6.000E-04  6.000E-06  0.451         -          -      01_06_08                                
 59               (1,6,9)         NODELAY   -7.00       15.0       1.00       6.000E-04  6.000E-06  0.451         -          -      01_06_09                                
 60               (1,6,10)        NODELAY   -7.00       15.0       1.00       6.000E-04  6.000E-06  0.451         -          -      01_06_10                                
 61               (1,7,1)         NODELAY   -7.00       15.0       1.00       6.000E-04  6.000E-06  0.451         -          -      01_07_01                                
 62               (1,7,2)         NODELAY   -7.00       15.0       1.00       6.000E-04  6.000E-06  0.451         -          -      01_07_02                                
 63               (1,7,3)         NODELAY   -7.00       15.0       1.00       6.000E-04  6.000E-06  0.451         -          -      01_07_03                                
 64               (1,7,4)         NODELAY   -7.00       15.0       1.00       6.000E-04  6.000E-06  0.451         -          -      01_07_04                                
 65               (1,7,5)         NODELAY   -7.00       15.0       1.00       6.000E-04  6.000E-06  0.451         -          -      01_07_05                                
 66               (1,7,6)         NODELAY   -7.00       15.0       1.00       6.000E-04  6.000E-06  0.451         -          -      01_07_06                                
 67               (1,7,7)         NODELAY   -7.00       15.0       1.00       6.000E-04  6.000E-06  0.451         -          -      01_07_07                                
 68               (1,7,8)         NODELAY   -7.00       15.0       1.00       6.000E-04  6.000E-06  0.451         -          -      01_07_08                                
 69               (1,7,9)         NODELAY   -7.00       15.0       1.00       6.000E-04  6.000E-06  0.451         -          -      01_07_09                                
 70               (1,7,10)        NODELAY   -7.00       15.0       1.00       6.000E-04  6.000E-06  0.451         -          -      01_07_10                                
 71               (1,8,1)         NODELAY   -7.00       15.0       1.00       6.000E-04  6.000E-06  0.451         -          -      01_08_01                                
 72               (1,8,2)         NODELAY   -7.00       15.0       1.00       6.000E-04  6.000E-06  0.451         -          -      01_08_02                                
 73               (1,8,3)         NODELAY   -7.00       15.0       1.00       6.000E-04  6.000E-06  0.451         -          -      01_08_03                                
 74               (1,8,4)         NODELAY   -7.00       15.0       1.00       6.000E-04  6.000E-06  0.451         -          -      01_08_04                                
 75               (1,8,5)         NODELAY   -7.00       15.0       1.00       6.000E-04  6.000E-06  0.451         -          -      01_08_05                                
 76               (1,8,6)         NODELAY   -7.00       15.0       1.00       6.000E-04  6.000E-06  0.451         -          -      01_08_06                                
 77               (1,8,7)         NODELAY   -7.00       15.0       1.00       6.000E-04  6.000E-06  0.451         -          -      01_08_07                                
 78               (1,8,8)         NODELAY   -7.00       15.0       1.00       6.000E-04  6.000E-06  0.451         -          -      01_08_08                                
 79               (1,8,9)         NODELAY   -7.00       15.0       1.00       6.000E-04  6.000E-06  0.451         -          -      01_08_09                                
 80               (1,8,10)        NODELAY   -7.00       15.0       1.00       6.000E-04  6.000E-06  0.451         -          -      01_08_10                                
 81               (1,9,1)         NODELAY   -7.00       15.0       1.00       6.000E-04  6.000E-06  0.451         -          -      01_09_01                                
 82               (1,9,2)         NODELAY   -7.00       15.0       1.00       6.000E-04  6.000E-06  0.451         -          -      01_09_02                                
 83               (1,9,3)         NODELAY   -7.00       15.0       1.00       6.000E-04  6.000E-06  0.451         -          -      01_09_03                                
 84               (1,9,4)         NODELAY   -7.00       15.0       1.00       6.000E-04  6.000E-06  0.451         -          -      01_09_04                                
 85               (1,9,5)         NODELAY   -7.00       15.0       1.00       6.000E-04  6.000E-06  0.451         -          -      01_09_05                                
 86               (1,9,6)         NODELAY   -7.00       15.0       1.00       6.000E-04  6.000E-06  0.451         -          -      01_09_06                                
 87               (1,9,7)         NODELAY   -7.00       15.0       1.00       6.000E-04  6.000E-06  0.451         -          -      01_09_07                                
 88               (1,9,8)         NODELAY   -7.00       15.0       1.00       6.000E-04  6.000E-06  0.451         -          -      01_09_08                                
 89               (1,9,9)         NODELAY   -7.00       15.0       1.00       6.000E-04  6.000E-06  0.451         -          -      01_09_09                                
 90               (1,9,10)        NODELAY   -7.00       15.0       1.00       6.000E-04  6.000E-06  0.451         -          -      01_09_10                                
 91               (1,10,1)        NODELAY   -7.00       15.0       1.00       6.000E-04  6.000E-06  0.451         -          -      01_10_01                                
 92               (1,10,2)        NODELAY   -7.00       15.0       1.00       6.000E-04  6.000E-06  0.451         -          -      01_10_02                                
 93               (1,10,3)        NODELAY   -7.00       15.0       1.00       6.000E-04  6.000E-06  0.451         -          -      01_10_03                                
 94               (1,10,8)        NODELAY   -7.00       15.0       1.00       6.000E-04  6.000E-06  0.451         -          -      01_10_08                                
 95               (1,10,9)        NODELAY   -7.00       15.0       1.00       6.000E-04  6.000E-06  0.451         -          -      01_10_09                                
 96              (1,10,10)        NODELAY   -7.00       15.0       1.00       6.000E-04  6.000E-06  0.451         -          -      01_10_10                                
 97               (2,1,1)         NODELAY   -7.00       50.0       1.00       3.000E-04  3.000E-06  0.451         -          -      02_01_01                                
 98               (2,1,2)         NODELAY   -7.00       50.0       1.00       3.000E-04  3.000E-06  0.451         -          -      02_01_02                                
 99               (2,1,3)         NODELAY   -7.00       50.0       1.00       3.000E-04  3.000E-06  0.451         -          -      02_01_03                                
 100              (2,1,4)         NODELAY   -7.00       50.0       1.00       3.000E-04  3.000E-06  0.451         -          -      02_01_04                                
 101              (2,1,5)         NODELAY   -7.00       50.0       1.00       3.000E-04  3.000E-06  0.451         -          -      02_01_05                                
 102              (2,1,6)         NODELAY   -7.00       50.0       1.00       3.000E-04  3.000E-06  0.451         -          -      02_01_06                                
 103              (2,1,7)         NODELAY   -7.00       50.0       1.00       3.000E-04  3.000E-06  0.451         -          -      02_01_07                                
 104              (2,1,8)         NODELAY   -7.00       50.0       1.00       3.000E-04  3.000E-06  0.451         -          -      02_01_08                                
 105              (2,1,9)         NODELAY   -7.00       50.0       1.00       3.000E-04  3.000E-06  0.451         -          -      02_01_09                                
 106              (2,1,10)        NODELAY   -7.00       50.0       1.00       3.000E-04  3.000E-06  0.451         -          -      02_01_10                                
 107              (2,2,1)         NODELAY   -7.00       50.0       1.00       3.000E-04  3.000E-06  0.451         -          -      02_02_01                                
 108              (2,2,2)         NODELAY   -7.00       50.0       1.00       3.000E-04  3.000E-06  0.451         -          -      02_02_02                                
 109              (2,2,3)         NODELAY   -7.00       50.0       1.00       3.000E-04  3.000E-06  0.451         -          -      02_02_03                                
 110              (2,2,4)         NODELAY   -7.00       50.0       1.00       3.000E-04  3.000E-06  0.451         -          -      02_02_04                                
 111              (2,2,5)         NODELAY   -7.00       50.0       1.00       3.000E-04  3.000E-06  0.451         -          -      02_02_05                                
 112              (2,2,6)         NODELAY   -7.00       50.0       1.00       3.000E-04  3.000E-06  0.451         -          -      02_02_06                                
 113              (2,2,7)         NODELAY   -7.00       50.0       1.00       3.000E-04  3.000E-06  0.451         -          -      02_02_07                                
 114              (2,2,8)         NODELAY   -7.00       50.0       1.00       3.000E-04  3.000E-06  0.451         -          -      02_02_08                                
 115              (2,2,9)         NODELAY   -7.00       50.0       1.00       3.000E-04  3.000E-06  0.451         -          -      02_02_09                                
 116              (2,2,10)        NODELAY   -7.00       50.0       1.00       3.000E-04  3.000E-06  0.451         -          -      02_02_10                                
 117              (2,3,1)         NODELAY   -7.00       50.0       1.00       3.000E-04  3.000E-06  0.451         -          -      02_03_01                                
 118              (2,3,2)         NODELAY   -7.00       50.0       1.00       3.000E-04  3.000E-06  0.451         -          -      02_03_02                                
 119              (2,3,3)         NODELAY   -7.00       50.0       1.00       3.000E-04  3.000E-06  0.451         -          -      02_03_03                                
 120              (2,3,4)         NODELAY   -7.00       50.0       1.00       3.000E-04  3.000E-06  0.451         -          -      02_03_04                                
 121              (2,3,5)         NODELAY   -7.00       50.0       1.00       3.000E-04  3.000E-06  0.451         -          -      02_03_05                                
 122              (2,3,6)         NODELAY   -7.00       50.0       1.00       3.000E-04  3.000E-06  0.451         -          -      02_03_06                                
 123              (2,3,7)         NODELAY   -7.00       50.0       1.00       3.000E-04  3.000E-06  0.451         -          -      02_03_07                                
 124              (2,3,8)         NODELAY   -7.00       50.0       1.00       3.000E-04  3.000E-06  0.451         -          -      02_03_08                                
 125              (2,3,9)         NODELAY   -7.00       50.0       1.00       3.000E-04  3.000E-06  0.451         -          -      02_03_09                                
 126              (2,3,10)        NODELAY   -7.00       50.0       1.00       3.000E-04  3.000E-06  0.451         -          -      02_03_10                                
 127              (2,4,1)         NODELAY   -7.00       50.0       1.00       3.000E-04  3.000E-06  0.451         -          -      02_04_01                                
 128              (2,4,2)         NODELAY   -7.00       50.0       1.00       3.000E-04  3.000E-06  0.451         -          -      02_04_02                                
 129              (2,4,3)         NODELAY   -7.00       50.0       1.00       3.000E-04  3.000E-06  0.451         -          -      02_04_03                                
 130              (2,4,4)         NODELAY   -7.00       50.0       1.00       3.000E-04  3.000E-06  0.451         -          -      02_04_04                                
 131              (2,4,5)         NODELAY   -7.00       50.0       1.00       3.000E-04  3.000E-06  0.451         -          -      02_04_05                                
 132              (2,4,6)         NODELAY   -7.00       50.0       1.00       3.000E-04  3.000E-06  0.451         -          -      02_04_06                                
 133              (2,4,7)         NODELAY   -7.00       50.0       1.00       3.000E-04  3.000E-06  0.451         -          -      02_04_07                                
 134              (2,4,8)         NODELAY   -7.00       50.0       1.00       3.000E-04  3.000E-06  0.451         -          -      02_04_08                                
 135              (2,4,9)         NODELAY   -7.00       50.0       1.00       3.000E-04  3.000E-06  0.451         -          -      02_04_09                                
 136              (2,4,10)        NODELAY   -7.00       50.0       1.00       3.000E-04  3.000E-06  0.451         -          -      02_04_10                                
 137              (2,5,1)         NODELAY   -7.00       50.0       1.00       3.000E-04  3.000E-06  0.451         -          -      02_05_01                                
 138              (2,5,2)         NODELAY   -7.00       50.0       1.00       3.000E-04  3.000E-06  0.451         -          -      02_05_02                                
 139              (2,5,3)         NODELAY   -7.00       50.0       1.00       3.000E-04  3.000E-06  0.451         -          -      02_05_03                                
 140              (2,5,4)         NODELAY   -7.00       50.0       1.00       3.000E-04  3.000E-06  0.451         -          -      02_05_04                                
 141              (2,5,5)         NODELAY   -7.00       50.0       1.00       3.000E-04  3.000E-06  0.451         -          -      02_05_05                                
 142              (2,5,6)         NODELAY   -7.00       50.0       1.00       3.000E-04  3.000E-06  0.451         -          -      02_05_06                                
 143              (2,5,7)         NODELAY   -7.00       50.0       1.00       3.000E-04  3.000E-06  0.451         -          -      02_05_07                                
 144              (2,5,8)         NODELAY   -7.00       50.0       1.00       3.000E-04  3.000E-06  0.451         -          -      02_05_08                                
 145              (2,5,9)         NODELAY   -7.00       50.0       1.00       3.000E-04  3.000E-06  0.451         -          -      02_05_09                                
 146              (2,5,10)        NODELAY   -7.00       50.0       1.00       3.000E-04  3.000E-06  0.451         -          -      02_05_10                                
 147              (2,6,1)         NODELAY   -7.00       50.0       1.00       3.000E-04  3.000E-06  0.451         -          -      02_06_01                                
 148              (2,6,2)         NODELAY   -7.00       50.0       1.00       3.000E-04  3.000E-06  0.451         -          -      02_06_02                                
 149              (2,6,3)         NODELAY   -7.00       50.0       1.00       3.000E-04  3.000E-06  0.451         -          -      02_06_03                                
 150              (2,6,4)         NODELAY   -7.00       50.0       1.00       3.000E-04  3.000E-06  0.451         -          -      02_06_04                                
 151              (2,6,5)         NODELAY   -7.00       50.0       1.00       3.000E-04  3.000E-06  0.451         -          -      02_06_05                                
 152              (2,6,6)         NODELAY   -7.00       50.0       1.00       3.000E-04  3.000E-06  0.451         -          -      02_06_06                                
 153              (2,6,7)         NODELAY   -7.00       50.0       1.00       3.000E-04  3.000E-06  0.451         -          -      02_06_07                                
 154              (2,6,8)         NODELAY   -7.00       50.0       1.00       3.000E-04  3.000E-06  0.451         -          -      02_06_08                                
 155              (2,6,9)         NODELAY   -7.00       50.0       1.00       3.000E-04  3.000E-06  0.451         -          -      02_06_09                                
 156              (2,6,10)        NODELAY   -7.00       50.0       1.00       3.000E-04  3.000E-06  0.451         -          -      02_06_10                                
 157              (2,7,1)         NODELAY   -7.00       50.0       1.00       3.000E-04  3.000E-06  0.451         -          -      02_07_01                                
 158              (2,7,2)         NODELAY   -7.00       50.0       1.00       3.000E-04  3.000E-06  0.451         -          -      02_07_02                                
 159              (2,7,3)         NODELAY   -7.00       50.0       1.00       3.000E-04  3.000E-06  0.451         -          -      02_07_03                                
 160              (2,7,4)         NODELAY   -7.00       50.0       1.00       3.000E-04  3.000E-06  0.451         -          -      02_07_04                                
 161              (2,7,5)         NODELAY   -7.00       50.0       1.00       3.000E-04  3.000E-06  0.451         -          -      02_07_05                                
 162              (2,7,6)         NODELAY   -7.00       50.0       1.00       3.000E-04  3.000E-06  0.451         -          -      02_07_06                                
 163              (2,7,7)         NODELAY   -7.00       50.0       1.00       3.000E-04  3.000E-06  0.451         -          -      02_07_07                                
 164              (2,7,8)         NODELAY   -7.00       50.0       1.00       3.000E-04  3.000E-06  0.451         -          -      02_07_08                                
 165              (2,7,9)         NODELAY   -7.00       50.0       1.00       3.000E-04  3.000E-06  0.451         -          -      02_07_09                                
 166              (2,7,10)        NODELAY   -7.00       50.0       1.00       3.000E-04  3.000E-06  0.451         -          -      02_07_10                                
 167              (2,8,1)         NODELAY   -7.00       50.0       1.00       3.000E-04  3.000E-06  0.451         -          -      02_08_01                                
 168              (2,8,2)         NODELAY   -7.00       50.0       1.00       3.000E-04  3.000E-06  0.451         -          -      02_08_02                                
 169              (2,8,3)         NODELAY   -7.00       50.0       1.00       3.000E-04  3.000E-06  0.451         -          -      02_08_03                                
 170              (2,8,4)         NODELAY   -7.00       50.0       1.00       3.000E-04  3.000E-06  0.451         -          -      02_08_04                                
 171              (2,8,5)         NODELAY   -7.00       50.0       1.00       3.000E-04  3.000E-06  0.451         -          -      02_08_05                                
 172              (2,8,6)         NODELAY   -7.00       50.0       1.00       3.000E-04  3.000E-06  0.451         -          -      02_08_06                                
 173              (2,8,7)         NODELAY   -7.00       50.0       1.00       3.000E-04  3.000E-06  0.451         -          -      02_08_07                                
 174              (2,8,8)         NODELAY   -7.00       50.0       1.00       3.000E-04  3.000E-06  0.451         -          -      02_08_08                                
 175              (2,8,9)         NODELAY   -7.00       50.0       1.00       3.000E-04  3.000E-06  0.451         -          -      02_08_09                                
 176              (2,8,10)        NODELAY   -7.00       50.0       1.00       3.000E-04  3.000E-06  0.451         -          -      02_08_10                                
 177              (2,9,1)         NODELAY   -7.00       50.0       1.00       3.000E-04  3.000E-06  0.451         -          -      02_09_01                                
 178              (2,9,2)         NODELAY   -7.00       50.0       1.00       3.000E-04  3.000E-06  0.451         -          -      02_09_02                                
 179              (2,9,3)         NODELAY   -7.00       50.0       1.00       3.000E-04  3.000E-06  0.451         -          -      02_09_03                                
 180              (2,9,4)         NODELAY   -7.00       50.0       1.00       3.000E-04  3.000E-06  0.451         -          -      02_09_04                                
 181              (2,9,5)         NODELAY   -7.00       50.0       1.00       3.000E-04  3.000E-06  0.451         -          -      02_09_05                                
 182              (2,9,6)         NODELAY   -7.00       50.0       1.00       3.000E-04  3.000E-06  0.451         -          -      02_09_06                                
 183              (2,9,7)         NODELAY   -7.00       50.0       1.00       3.000E-04  3.000E-06  0.451         -          -      02_09_07                                
 184              (2,9,8)         NODELAY   -7.00       50.0       1.00       3.000E-04  3.000E-06  0.451         -          -      02_09_08                                
 185              (2,9,9)         NODELAY   -7.00       50.0       1.00       3.000E-04  3.000E-06  0.451         -          -      02_09_09                                
 186              (2,9,10)        NODELAY   -7.00       50.0       1.00       3.000E-04  3.000E-06  0.451         -          -      02_09_10                                
 187              (2,10,1)        NODELAY   -7.00       50.0       1.00       3.000E-04  3.000E-06  0.451         -          -      02_10_01                                
 188              (2,10,2)        NODELAY   -7.00       50.0       1.00       3.000E-04  3.000E-06  0.451         -          -      02_10_02                                
 189              (2,10,3)        NODELAY   -7.00       50.0       1.00       3.000E-04  3.000E-06  0.451         -          -      02_10_03                                
 190              (2,10,4)        NODELAY   -7.00       50.0       1.00       3.000E-04  3.000E-06  0.451         -          -      02_10_04                                
 191              (2,10,5)        NODELAY   -7.00       50.0       1.00       3.000E-04  3.000E-06  0.451         -          -      02_10_05                                
 192              (2,10,6)        NODELAY   -7.00       50.0       1.00       3.000E-04  3.000E-06  0.451         -          -      02_10_06                                
 193              (2,10,7)        NODELAY   -7.00       50.0       1.00       3.000E-04  3.000E-06  0.451         -          -      02_10_07                                
 194              (2,10,8)        NODELAY   -7.00       50.0       1.00       3.000E-04  3.000E-06  0.451         -          -      02_10_08                                
 195              (2,10,9)        NODELAY   -7.00       50.0       1.00       3.000E-04  3.000E-06  0.451         -          -      02_10_09                                
 196             (2,10,10)        NODELAY   -7.00       50.0       1.00       3.000E-04  3.000E-06  0.451         -          -      02_10_10                                
 197              (3,1,1)         NODELAY   -7.00       30.0       1.00       6.000E-04  6.000E-06  0.451         -          -      03_01_01                                
 198              (3,1,2)         NODELAY   -7.00       30.0       1.00       6.000E-04  6.000E-06  0.451         -          -      03_01_02                                
 199              (3,1,3)         NODELAY   -7.00       30.0       1.00       6.000E-04  6.000E-06  0.451         -          -      03_01_03                                
 200              (3,1,4)         NODELAY   -7.00       30.0       1.00       6.000E-04  6.000E-06  0.451         -          -      03_01_04                                
 201              (3,1,5)         NODELAY   -7.00       30.0       1.00       6.000E-04  6.000E-06  0.451         -          -      03_01_05                                
 202              (3,1,6)         NODELAY   -7.00       30.0       1.00       6.000E-04  6.000E-06  0.451         -          -      03_01_06                                
 203              (3,1,7)         NODELAY   -7.00       30.0       1.00       6.000E-04  6.000E-06  0.451         -          -      03_01_07                                
 204              (3,1,8)         NODELAY   -7.00       30.0       1.00       6.000E-04  6.000E-06  0.451         -          -      03_01_08                                
 205              (3,1,9)         NODELAY   -7.00       30.0       1.00       6.000E-04  6.000E-06  0.451         -          -      03_01_09                                
 206              (3,1,10)        NODELAY   -7.00       30.0       1.00       6.000E-04  6.000E-06  0.451         -          -      03_01_10                                
 207              (3,2,1)         NODELAY   -7.00       30.0       1.00       6.000E-04  6.000E-06  0.451         -          -      03_02_01                                
 208              (3,2,2)         NODELAY   -7.00       30.0       1.00       6.000E-04  6.000E-06  0.451         -          -      03_02_02                                
 209              (3,2,3)         NODELAY   -7.00       30.0       1.00       6.000E-04  6.000E-06  0.451         -          -      03_02_03                                
 210              (3,2,4)         NODELAY   -7.00       30.0       1.00       6.000E-04  6.000E-06  0.451         -          -      03_02_04                                
 211              (3,2,5)         NODELAY   -7.00       30.0       1.00       6.000E-04  6.000E-06  0.451         -          -      03_02_05                                
 212              (3,2,6)         NODELAY   -7.00       30.0       1.00       6.000E-04  6.000E-06  0.451         -          -      03_02_06                                
 213              (3,2,7)         NODELAY   -7.00       30.0       1.00       6.000E-04  6.000E-06  0.451         -          -      03_02_07                                
 214              (3,2,8)         NODELAY   -7.00       30.0       1.00       6.000E-04  6.000E-06  0.451         -          -      03_02_08                                
 215              (3,2,9)         NODELAY   -7.00       30.0       1.00       6.000E-04  6.000E-06  0.451         -          -      03_02_09                                
 216              (3,2,10)        NODELAY   -7.00       30.0       1.00       6.000E-04  6.000E-06  0.451         -          -      03_02_10                                
 217              (3,3,1)         NODELAY   -7.00       30.0       1.00       6.000E-04  6.000E-06  0.451         -          -      03_03_01                                
 218              (3,3,2)         NODELAY   -7.00       30.0       1.00       6.000E-04  6.000E-06  0.451         -          -      03_03_02                                
 219              (3,3,3)         NODELAY   -7.00       30.0       1.00       6.000E-04  6.000E-06  0.451         -          -      03_03_03                                
 220              (3,3,4)         NODELAY   -7.00       30.0       1.00       6.000E-04  6.000E-06  0.451         -          -      03_03_04                                
 221              (3,3,5)         NODELAY   -7.00       30.0       1.00       6.000E-04  6.000E-06  0.451         -          -      03_03_05                                
 222              (3,3,6)         NODELAY   -7.00       30.0       1.00       6.000E-04  6.000E-06  0.451         -          -      03_03_06                                
 223              (3,3,7)         NODELAY   -7.00       30.0       1.00       6.000E-04  6.000E-06  0.451         -          -      03_03_07                                
 224              (3,3,8)         NODELAY   -7.00       30.0       1.00       6.000E-04  6.000E-06  0.451         -          -      03_03_08                                
 225              (3,3,9)         NODELAY   -7.00       30.0       1.00       6.000E-04  6.000E-06  0.451         -          -      03_03_09                                
 226              (3,3,10)        NODELAY   -7.00       30.0       1.00       6.000E-04  6.000E-06  0.451         -          -      03_03_10                                
 227              (3,4,1)         NODELAY   -7.00       30.0       1.00       6.000E-04  6.000E-06  0.451         -          -      03_04_01                                
 228              (3,4,2)         NODELAY   -7.00       30.0       1.00       6.000E-04  6.000E-06  0.451         -          -      03_04_02                                
 229              (3,4,3)         NODELAY   -7.00       30.0       1.00       6.000E-04  6.000E-06  0.451         -          -      03_04_03                                
 230              (3,4,4)         NODELAY   -7.00       30.0       1.00       6.000E-04  6.000E-06  0.451         -          -      03_04_04                                
 231              (3,4,5)         NODELAY   -7.00       30.0       1.00       6.000E-04  6.000E-06  0.451         -          -      03_04_05                                
 232              (3,4,6)         NODELAY   -7.00       30.0       1.00       6.000E-04  6.000E-06  0.451         -          -      03_04_06                                
 233              (3,4,7)         NODELAY   -7.00       30.0       1.00       6.000E-04  6.000E-06  0.451         -          -      03_04_07                                
 234              (3,4,8)         NODELAY   -7.00       30.0       1.00       6.000E-04  6.000E-06  0.451         -          -      03_04_08                                
 235              (3,4,9)         NODELAY   -7.00       30.0       1.00       6.000E-04  6.000E-06  0.451         -          -      03_04_09                                
 236              (3,4,10)        NODELAY   -7.00       30.0       1.00       6.000E-04  6.000E-06  0.451         -          -      03_04_10                                
 237              (3,5,1)         NODELAY   -7.00       30.0       1.00       6.000E-04  6.000E-06  0.451         -          -      03_05_01                                
 238              (3,5,2)         NODELAY   -7.00       30.0       1.00       6.000E-04  6.000E-06  0.451         -          -      03_05_02                                
 239              (3,5,3)         NODELAY   -7.00       30.0       1.00       6.000E-04  6.000E-06  0.451         -          -      03_05_03                                
 240              (3,5,4)         NODELAY   -7.00       30.0       1.00       6.000E-04  6.000E-06  0.451         -          -      03_05_04                                
 241              (3,5,5)         NODELAY   -7.00       30.0       1.00       6.000E-04  6.000E-06  0.451         -          -      03_05_05                                
 242              (3,5,6)         NODELAY   -7.00       30.0       1.00       6.000E-04  6.000E-06  0.451         -          -      03_05_06                                
 243              (3,5,7)         NODELAY   -7.00       30.0       1.00       6.000E-04  6.000E-06  0.451         -          -      03_05_07                                
 244              (3,5,8)         NODELAY   -7.00       30.0       1.00       6.000E-04  6.000E-06  0.451         -          -      03_05_08                                
 245              (3,5,9)         NODELAY   -7.00       30.0       1.00       6.000E-04  6.000E-06  0.451         -          -      03_05_09                                
 246              (3,5,10)        NODELAY   -7.00       30.0       1.00       6.000E-04  6.000E-06  0.451         -          -      03_05_10                                
 247              (3,6,1)         NODELAY   -7.00       30.0       1.00       6.000E-04  6.000E-06  0.451         -          -      03_06_01                                
 248              (3,6,2)         NODELAY   -7.00       30.0       1.00       6.000E-04  6.000E-06  0.451         -          -      03_06_02                                
 249              (3,6,3)         NODELAY   -7.00       30.0       1.00       6.000E-04  6.000E-06  0.451         -          -      03_06_03                                
 250              (3,6,4)         NODELAY   -7.00       30.0       1.00       6.000E-04  6.000E-06  0.451         -          -      03_06_04                                
 251              (3,6,5)         NODELAY   -7.00       30.0       1.00       6.000E-04  6.000E-06  0.451         -          -      03_06_05                                
 252              (3,6,6)         NODELAY   -7.00       30.0       1.00       6.000E-04  6.000E-06  0.451         -          -      03_06_06                                
 253              (3,6,7)         NODELAY   -7.00       30.0       1.00       6.000E-04  6.000E-06  0.451         -          -      03_06_07                                
 254              (3,6,8)         NODELAY   -7.00       30.0       1.00       6.000E-04  6.000E-06  0.451         -          -      03_06_08                                
 255              (3,6,9)         NODELAY   -7.00       30.0       1.00       6.000E-04  6.000E-06  0.451         -          -      03_06_09                                
 256              (3,6,10)        NODELAY   -7.00       30.0       1.00       6.000E-04  6.000E-06  0.451         -          -      03_06_10                                
 257              (3,7,1)         NODELAY   -7.00       30.0       1.00       6.000E-04  6.000E-06  0.451         -          -      03_07_01                                
 258              (3,7,2)         NODELAY   -7.00       30.0       1.00       6.000E-04  6.000E-06  0.451         -          -      03_07_02                                
 259              (3,7,3)         NODELAY   -7.00       30.0       1.00       6.000E-04  6.000E-06  0.451         -          -      03_07_03                                
 260              (3,7,4)         NODELAY   -7.00       30.0       1.00       6.000E-04  6.000E-06  0.451         -          -      03_07_04                                
 261              (3,7,5)         NODELAY   -7.00       30.0       1.00       6.000E-04  6.000E-06  0.451         -          -      03_07_05                                
 262              (3,7,6)         NODELAY   -7.00       30.0       1.00       6.000E-04  6.000E-06  0.451         -          -      03_07_06                                
 263              (3,7,7)         NODELAY   -7.00       30.0       1.00       6.000E-04  6.000E-06  0.451         -          -      03_07_07                                
 264              (3,7,8)         NODELAY   -7.00       30.0       1.00       6.000E-04  6.000E-06  0.451         -          -      03_07_08                                
 265              (3,7,9)         NODELAY   -7.00       30.0       1.00       6.000E-04  6.000E-06  0.451         -          -      03_07_09                                
 266              (3,7,10)        NODELAY   -7.00       30.0       1.00       6.000E-04  6.000E-06  0.451         -          -      03_07_10                                
 267              (3,8,1)         NODELAY   -7.00       30.0       1.00       6.000E-04  6.000E-06  0.451         -          -      03_08_01                                
 268              (3,8,2)         NODELAY   -7.00       30.0       1.00       6.000E-04  6.000E-06  0.451         -          -      03_08_02                                
 269              (3,8,3)         NODELAY   -7.00       30.0       1.00       6.000E-04  6.000E-06  0.451         -          -      03_08_03                                
 270              (3,8,4)         NODELAY   -7.00       30.0       1.00       6.000E-04  6.000E-06  0.451         -          -      03_08_04                                
 271              (3,8,5)         NODELAY   -7.00       30.0       1.00       6.000E-04  6.000E-06  0.451         -          -      03_08_05                                
 272              (3,8,6)         NODELAY   -7.00       30.0       1.00       6.000E-04  6.000E-06  0.451         -          -      03_08_06                                
 273              (3,8,7)         NODELAY   -7.00       30.0       1.00       6.000E-04  6.000E-06  0.451         -          -      03_08_07                                
 274              (3,8,8)         NODELAY   -7.00       30.0       1.00       6.000E-04  6.000E-06  0.451         -          -      03_08_08                                
 275              (3,8,9)         NODELAY   -7.00       30.0       1.00       6.000E-04  6.000E-06  0.451         -          -      03_08_09                                
 276              (3,8,10)        NODELAY   -7.00       30.0       1.00       6.000E-04  6.000E-06  0.451         -          -      03_08_10                                
 277              (3,9,1)         NODELAY   -7.00       30.0       1.00       6.000E-04  6.000E-06  0.451         -          -      03_09_01                                
 278              (3,9,2)         NODELAY   -7.00       30.0       1.00       6.000E-04  6.000E-06  0.451         -          -      03_09_02                                
 279              (3,9,3)         NODELAY   -7.00       30.0       1.00       6.000E-04  6.000E-06  0.451         -          -      03_09_03                                
 280              (3,9,4)         NODELAY   -7.00       30.0       1.00       6.000E-04  6.000E-06  0.451         -          -      03_09_04                                
 281              (3,9,5)         NODELAY   -7.00       30.0       1.00       6.000E-04  6.000E-06  0.451         -          -      03_09_05                                
 282              (3,9,6)         NODELAY   -7.00       30.0       1.00       6.000E-04  6.000E-06  0.451         -          -      03_09_06                                
 283              (3,9,7)         NODELAY   -7.00       30.0       1.00       6.000E-04  6.000E-06  0.451         -          -      03_09_07                                
 284              (3,9,8)         NODELAY   -7.00       30.0       1.00       6.000E-04  6.000E-06  0.451         -          -      03_09_08                                
 285              (3,9,9)         NODELAY   -7.00       30.0       1.00       6.000E-04  6.000E-06  0.451         -          -      03_09_09                                
 286              (3,9,10)        NODELAY   -7.00       30.0       1.00       6.000E-04  6.000E-06  0.451         -          -      03_09_10                                
 287              (3,10,1)        NODELAY   -7.00       30.0       1.00       6.000E-04  6.000E-06  0.451         -          -      03_10_01                                
 288              (3,10,2)        NODELAY   -7.00       30.0       1.00       6.000E-04  6.000E-06  0.451         -          -      03_10_02                                
 289              (3,10,3)        NODELAY   -7.00       30.0       1.00       6.000E-04  6.000E-06  0.451         -          -      03_10_03                                
 290              (3,10,4)        NODELAY   -7.00       30.0       1.00       6.000E-04  6.000E-06  0.451         -          -      03_10_04                                
 291              (3,10,5)        NODELAY   -7.00       30.0       1.00       6.000E-04  6.000E-06  0.451         -          -      03_10_05                                
 292              (3,10,6)        NODELAY   -7.00       30.0       1.00       6.000E-04  6.000E-06  0.451         -          -      03_10_06                                
 293              (3,10,7)        NODELAY   -7.00       30.0       1.00       6.000E-04  6.000E-06  0.451         -          -      03_10_07                                
 294              (3,10,8)        NODELAY   -7.00       30.0       1.00       6.000E-04  6.000E-06  0.451         -          -      03_10_08                                
 295              (3,10,9)        NODELAY   -7.00       30.0       1.00       6.000E-04  6.000E-06  0.451         -          -      03_10_09                                
 296             (3,10,10)        NODELAY   -7.00       30.0       1.00       6.000E-04  6.000E-06  0.451         -          -      03_10_10                                
 ---------------------------------------------------------------------------------------------------------------------------------------------------------------------------


    BINARY GRID INFORMATION WILL BE WRITTEN TO:
      UNIT NUMBER: 1020
      FILE NAME: csub_sub03a.dis.grb

 OPENED csub_sub03a.dis.grb
 FILE TYPE:DATA(BINARY)   UNIT 1020   STATUS:REPLACE             
 FORMAT:UNFORMATTED            ACCESS:STREAM              
 ACTION:READWRITE           

      THE LAST TIME STEP WILL BE PRINTED
      THE LAST TIME STEP WILL BE PRINTED
 # File generated by Flopy version 3.5.0.dev0 on 10/30/2023 at 09:02:45.

 PROCESSING OC OPTIONS

    BUDGET INFORMATION WILL BE WRITTEN TO:
      UNIT NUMBER: 1021
      FILE NAME: csub_sub03a.cbc

 OPENED csub_sub03a.cbc
 FILE TYPE:DATA(BINARY)   UNIT 1021   STATUS:REPLACE             
 FORMAT:UNFORMATTED            ACCESS:STREAM              
 ACTION:READWRITE           

    HEAD INFORMATION WILL BE WRITTEN TO:
      UNIT NUMBER: 1022
      FILE NAME: csub_sub03a.hds

 OPENED csub_sub03a.hds
 FILE TYPE:DATA(BINARY)   UNIT 1022   STATUS:REPLACE             
 FORMAT:UNFORMATTED            ACCESS:STREAM              
 ACTION:READWRITE           

 END OF OC OPTIONS

start timestep kper="1" kstp="1" mode="normal"


 BEGIN READING OUTPUT CONTROL FOR STRESS PERIOD 1
      THE LAST TIME STEP WILL BE SAVED
      THE LAST TIME STEP WILL BE SAVED
      THE LAST TIME STEP WILL BE PRINTED
      THE LAST TIME STEP WILL BE PRINTED

 END READING OUTPUT CONTROL FOR STRESS PERIOD 1


 PROCESSING STORAGE PERIOD DATA
 END PROCESSING STORAGE PERIOD DATA


 STRESS PERIOD 1 IS STEADY-STATE


 REUSING CSUBS FROM LAST STRESS PERIOD

 REUSING WELS FROM LAST STRESS PERIOD
 UBDSV1 SAVING  CSUB-CGELASTIC  ON UNIT   1021 AT TIME STEP      1, STRESS PERIOD      1
 UBDSV06 SAVING    CSUB-ELASTIC  IN MODEL CSUB_SUB03A      PACKAGE CSUB_SUB03A     CONNECTED TO MODEL CSUB_SUB03A      PACKAGE CSUB             ON UNIT   1021 AT TIME STEP      1, STRESS PERIOD      1
 UBDSV06 SAVING  CSUB-INELASTIC  IN MODEL CSUB_SUB03A      PACKAGE CSUB_SUB03A     CONNECTED TO MODEL CSUB_SUB03A      PACKAGE CSUB             ON UNIT   1021 AT TIME STEP      1, STRESS PERIOD      1
 UBDSV1 SAVING  CSUB-WATERCOMP  ON UNIT   1021 AT TIME STEP      1, STRESS PERIOD      1

 CSUB-COMPACTION WILL BE SAVED ON UNIT 1017 AT END OF TIME STEP    1, STRESS PERIOD    1
1
  HEAD IN LAYER   1 AT END OF TIME STEP   1 IN STRESS PERIOD    1
  ---------------------------------------------------------------------------

                1               2               3               4               5               6               7               8               9              10
 ................................................................................................................................................................
   1      23.3472         22.9176         22.1026         21.5778         21.3061         21.2732         21.4818         21.9517         22.7254         23.1326    
   2      22.1173         21.5078         20.9853         20.6053         20.3894         20.3456         20.4763         20.7788         21.2391         21.8118    
   3      20.3714         19.7782         19.3229         18.9998         18.8068         18.7425         18.8062         18.9993         19.3300         19.8267    
   4      18.0364         17.5196         17.1506         16.8921         16.7269         16.6448         16.6362         16.6879         16.7775         16.8637    
   5      14.7956         14.6858         14.5488         14.4231         14.3261         14.2642         14.2366         14.2363         14.2514         14.2662    
   6      12.0049         11.9670         11.9077         11.8441         11.7895         11.7515         11.7319         11.7274         11.7314         11.7361    
   7      9.36303         9.33211         9.28132         9.22661         9.18392         9.16242         9.16376         9.18218         9.20546         9.22131    
   8      6.82995         6.76637         6.66082         6.55119         6.48357         6.47194         6.51724         6.60744         6.69851         6.75434    
   9      4.52424         4.35010         4.03926         3.69007         3.54144         3.53584         3.67338         4.01160         4.31396         4.48353    
  10      2.87723         2.45418         1.54536         0.00000         0.00000         0.00000         0.00000         1.53335         2.43408         2.85302    
1
  HEAD IN LAYER   2 AT END OF TIME STEP   1 IN STRESS PERIOD    1
  ---------------------------------------------------------------------------

                1               2               3               4               5               6               7               8               9              10
 ................................................................................................................................................................
   1      14.7549         14.8172         14.8599         14.8859         14.8968         14.8937         14.8765         14.8445         14.7961         14.7287    
   2      14.4233         16.7839         16.8848         16.7292         16.6282         16.6066         16.6658         16.7841         16.6645         14.3786    
   3      14.0068         16.0340         16.1191         15.9806         15.8858         15.8533         15.8830         15.9578         15.8338         13.9464    
   4      13.5184         14.9555         14.9959         14.8830         14.8014         14.7600         14.7542         14.7667         14.6364         13.4480    
   5      12.9778         13.6205         13.6488         13.5929         13.5447         13.5135         13.4989         13.4928         13.4254         12.9109    
   6      12.4154         12.3190         12.2767         12.2436         12.2160         12.1967         12.1869         12.1861         12.2093         12.3572    
   7      11.8555         11.0540         10.9137         10.8774         10.8550         10.8440         10.8455         10.8636         10.9925         11.8082    
   8      11.3207         9.82943         9.56404         9.49316         9.45763         9.45168         9.47582         9.53679         9.79493         11.2848    
   9      10.8323         8.75596         8.32734         8.14706         8.07207         8.06918         8.13846         8.31318         8.73696         10.8080    
  10      10.4094         10.3205         10.2495         10.1988         10.1728         10.1714         10.1945         10.2423         10.3105         10.3965    
1
  HEAD IN LAYER   3 AT END OF TIME STEP   1 IN STRESS PERIOD    1
  ---------------------------------------------------------------------------

                1               2               3               4               5               6               7               8               9              10
 ................................................................................................................................................................
   1      13.0452         13.0463         13.0475         13.0483         13.0486         13.0482         13.0472         13.0458         13.0441         13.0428    
   2      13.0202         13.0247         13.0275         13.0286         13.0288         13.0283         13.0271         13.0251         13.0218         13.0172    
   3      12.9605         12.9647         12.9675         12.9686         12.9687         12.9680         12.9667         12.9645         12.9611         12.9568    
   4      12.8711         12.8742         12.8760         12.8767         12.8765         12.8757         12.8745         12.8727         12.8701         12.8671    
   5      12.7619         12.7632         12.7639         12.7640         12.7636         12.7629         12.7621         12.7610         12.7597         12.7583    
   6      12.6449         12.6445         12.6438         12.6430         12.6424         12.6419         12.6416         12.6415         12.6417         12.6420    
   7      12.5327         12.5304         12.5283         12.5266         12.5256         12.5253         12.5256         12.5267         12.5284         12.5305    
   8      12.4375         12.4336         12.4301         12.4277         12.4263         12.4260         12.4269         12.4290         12.4322         12.4359    
   9      12.3711         12.3665         12.3624         12.3595         12.3580         12.3578         12.3590         12.3616         12.3654         12.3700    
  10      12.3419         12.3404         12.3384         12.3366         12.3356         12.3355         12.3362         12.3377         12.3395         12.3410    

 HEAD WILL BE SAVED ON UNIT 1022 AT END OF TIME STEP    1, STRESS PERIOD    1


  VOLUME BUDGET FOR ENTIRE MODEL AT END OF TIME STEP    1, STRESS PERIOD   1
  ---------------------------------------------------------------------------------------------------

     CUMULATIVE VOLUME      L**3       RATES FOR THIS TIME STEP      L**3/T          PACKAGE NAME    
     ------------------                 ------------------------                     ----------------

           IN:                                      IN:
           ---                                      ---
              STO-SS =           0.0000                STO-SS =           0.0000     STORAGE                          
      CSUB-CGELASTIC =           0.0000        CSUB-CGELASTIC =           0.0000     CSUB                             
        CSUB-ELASTIC =           0.0000          CSUB-ELASTIC =           0.0000     CSUB                             
      CSUB-INELASTIC =           0.0000        CSUB-INELASTIC =           0.0000     CSUB                             
      CSUB-WATERCOMP =           0.0000        CSUB-WATERCOMP =           0.0000     CSUB                             
                 WEL =           0.0000                   WEL =           0.0000     WEL_0                            
                RCHA =       27000.0000                  RCHA =       27000.0000     RCHA_0                           
                 CHD =           0.0000                   CHD =           0.0000     CHD_0                            

            TOTAL IN =       27000.0000              TOTAL IN =       27000.0000

          OUT:                                     OUT:
          ----                                     ----
              STO-SS =           0.0000                STO-SS =           0.0000     STORAGE                          
      CSUB-CGELASTIC =           0.0000        CSUB-CGELASTIC =           0.0000     CSUB                             
        CSUB-ELASTIC =           0.0000          CSUB-ELASTIC =           0.0000     CSUB                             
      CSUB-INELASTIC =           0.0000        CSUB-INELASTIC =           0.0000     CSUB                             
      CSUB-WATERCOMP =           0.0000        CSUB-WATERCOMP =           0.0000     CSUB                             
                 WEL =           0.0000                   WEL =           0.0000     WEL_0                            
                RCHA =           0.0000                  RCHA =           0.0000     RCHA_0                           
                 CHD =       27000.0000                   CHD =       27000.0000     CHD_0                            

           TOTAL OUT =       27000.0000             TOTAL OUT =       27000.0000

            IN - OUT =       4.2466E-08              IN - OUT =       4.2466E-08

 PERCENT DISCREPANCY =           0.00     PERCENT DISCREPANCY =           0.00




         TIME SUMMARY AT END OF TIME STEP    1 IN STRESS PERIOD    1
                    SECONDS     MINUTES      HOURS       DAYS        YEARS
                    -----------------------------------------------------------
   TIME STEP LENGTH  86400.      1440.0      24.000      1.0000     2.73785E-03
 STRESS PERIOD TIME  86400.      1440.0      24.000      1.0000     2.73785E-03
         TOTAL TIME  86400.      1440.0      24.000      1.0000     2.73785E-03


end timestep


start timestep kper="2" kstp="1" mode="normal"


 END OF FILE DETECTED IN OUTPUT CONTROL.
 CURRENT OUTPUT CONTROL SETTINGS WILL BE 
 REPEATED UNTIL THE END OF THE SIMULATION.

 OUTPUT CONTROL FOR STRESS PERIOD 2 IS REPEATED USING SETTINGS FROM A PREVIOUS STRESS PERIOD.


 PROCESSING STORAGE PERIOD DATA
 END PROCESSING STORAGE PERIOD DATA


 STRESS PERIOD 2 IS TRANSIENT


 REUSING CSUBS FROM LAST STRESS PERIOD
 ---------------------------------------------------
  WEL NO.    LAYER    ROW     COL     STRESS RATE   
 ---------------------------------------------------
     1         3       3       6    -14000.0000     
     2         3       3       7    -8000.00000     
     3         3       4       6    -5000.00000     
     4         3       4       7    -3000.00000     
 ---------------------------------------------------



 REUSING RCHS FROM LAST STRESS PERIOD

 REUSING CHDS FROM LAST STRESS PERIOD

 CSUB PACKAGE CALCULATED INITIAL INTERBED STRESSES AT THE CELL BOTTOM
 ---------------------------------------------------------------------------------------------------------------------------
 INTERBED                                                          PRECONSOLIDATION                                         
 NUMBER            CELLID        GEOSTATIC STRESS EFFECTIVE STRESS      STRESS      BOUNDNAME                               
 ---------------------------------------------------------------------------------------------------------------------------
 1                (1,1,1)         200.000000       76.6527642       107.000000      01_01_01                                
 2                (1,1,2)         200.000000       77.0823827       107.000000      01_01_02                                
 3                (1,1,3)         200.000000       77.8973923       107.000000      01_01_03                                
 4                (1,1,4)         200.000000       78.4222189       107.000000      01_01_04                                
 5                (1,1,5)         200.000000       78.6938946       107.000000      01_01_05                                
 6                (1,1,6)         200.000000       78.7267832       107.000000      01_01_06                                
 7                (1,1,7)         200.000000       78.5182026       107.000000      01_01_07                                
 8                (1,1,8)         200.000000       78.0483405       107.000000      01_01_08                                
 9                (1,1,9)         200.000000       77.2746145       107.000000      01_01_09                                
 10               (1,1,10)        200.000000       76.8674125       107.000000      01_01_10                                
 11               (1,2,1)         200.000000       77.8827363       107.000000      01_02_01                                
 12               (1,2,2)         200.000000       78.4922156       107.000000      01_02_02                                
 13               (1,2,3)         200.000000       79.0146684       107.000000      01_02_03                                
 14               (1,2,4)         200.000000       79.3946710       107.000000      01_02_04                                
 15               (1,2,5)         200.000000       79.6105876       107.000000      01_02_05                                
 16               (1,2,6)         200.000000       79.6543829       107.000000      01_02_06                                
 17               (1,2,7)         200.000000       79.5236966       107.000000      01_02_07                                
 18               (1,2,8)         200.000000       79.2211531       107.000000      01_02_08                                
 19               (1,2,9)         200.000000       78.7609429       107.000000      01_02_09                                
 20               (1,2,10)        200.000000       78.1881815       107.000000      01_02_10                                
 21               (1,3,1)         200.000000       79.6286274       107.000000      01_03_01                                
 22               (1,3,2)         200.000000       80.2218115       107.000000      01_03_02                                
 23               (1,3,3)         200.000000       80.6771421       107.000000      01_03_03                                
 24               (1,3,4)         200.000000       81.0002097       107.000000      01_03_04                                
 25               (1,3,5)         200.000000       81.1931984       107.000000      01_03_05                                
 26               (1,3,6)         200.000000       81.2574753       107.000000      01_03_06                                
 27               (1,3,7)         200.000000       81.1937565       107.000000      01_03_07                                
 28               (1,3,8)         200.000000       81.0006639       107.000000      01_03_08                                
 29               (1,3,9)         200.000000       80.6700287       107.000000      01_03_09                                
 30               (1,3,10)        200.000000       80.1733056       107.000000      01_03_10                                
 31               (1,4,1)         200.000000       81.9635951       107.000000      01_04_01                                
 32               (1,4,2)         200.000000       82.4803561       107.000000      01_04_02                                
 33               (1,4,3)         200.000000       82.8494453       107.000000      01_04_03                                
 34               (1,4,4)         200.000000       83.1079482       107.000000      01_04_04                                
 35               (1,4,5)         200.000000       83.2731308       107.000000      01_04_05                                
 36               (1,4,6)         200.000000       83.3552153       107.000000      01_04_06                                
 37               (1,4,7)         200.000000       83.3637721       107.000000      01_04_07                                
 38               (1,4,8)         200.000000       83.3120962       107.000000      01_04_08                                
 39               (1,4,9)         200.000000       83.2224889       107.000000      01_04_09                                
 40               (1,4,10)        200.000000       83.1362556       107.000000      01_04_10                                
 41               (1,5,1)         200.000000       85.2044104       107.000000      01_05_01                                
 42               (1,5,2)         200.000000       85.3142039       107.000000      01_05_02                                
 43               (1,5,3)         200.000000       85.4511649       107.000000      01_05_03                                
 44               (1,5,4)         200.000000       85.5769138       107.000000      01_05_04                                
 45               (1,5,5)         200.000000       85.6739033       107.000000      01_05_05                                
 46               (1,5,6)         200.000000       85.7357573       107.000000      01_05_06                                
 47               (1,5,7)         200.000000       85.7634268       107.000000      01_05_07                                
 48               (1,5,8)         200.000000       85.7637263       107.000000      01_05_08                                
 49               (1,5,9)         200.000000       85.7486064       107.000000      01_05_09                                
 50               (1,5,10)        200.000000       85.7337784       107.000000      01_05_10                                
 51               (1,6,1)         200.000000       87.9951453       107.000000      01_06_01                                
 52               (1,6,2)         200.000000       88.0329896       107.000000      01_06_02                                
 53               (1,6,3)         200.000000       88.0923334       107.000000      01_06_03                                
 54               (1,6,4)         200.000000       88.1559357       107.000000      01_06_04                                
 55               (1,6,5)         200.000000       88.2105296       107.000000      01_06_05                                
 56               (1,6,6)         200.000000       88.2485324       107.000000      01_06_06                                
 57               (1,6,7)         200.000000       88.2681357       107.000000      01_06_07                                
 58               (1,6,8)         200.000000       88.2725733       107.000000      01_06_08                                
 59               (1,6,9)         200.000000       88.2686000       107.000000      01_06_09                                
 60               (1,6,10)        200.000000       88.2638572       107.000000      01_06_10                                
 61               (1,7,1)         200.000000       90.6369665       107.000000      01_07_01                                
 62               (1,7,2)         200.000000       90.6678888       107.000000      01_07_02                                
 63               (1,7,3)         200.000000       90.7186825       107.000000      01_07_03                                
 64               (1,7,4)         200.000000       90.7733885       107.000000      01_07_04                                
 65               (1,7,5)         200.000000       90.8160792       107.000000      01_07_05                                
 66               (1,7,6)         200.000000       90.8375770       107.000000      01_07_06                                
 67               (1,7,7)         200.000000       90.8362376       107.000000      01_07_07                                
 68               (1,7,8)         200.000000       90.8178156       107.000000      01_07_08                                
 69               (1,7,9)         200.000000       90.7945393       107.000000      01_07_09                                
 70               (1,7,10)        200.000000       90.7786914       107.000000      01_07_10                                
 71               (1,8,1)         200.000000       93.1700534       107.000000      01_08_01                                
 72               (1,8,2)         200.000000       93.2336335       107.000000      01_08_02                                
 73               (1,8,3)         200.000000       93.3391768       107.000000      01_08_03                                
 74               (1,8,4)         200.000000       93.4488076       107.000000      01_08_04                                
 75               (1,8,5)         200.000000       93.5164264       107.000000      01_08_05                                
 76               (1,8,6)         200.000000       93.5280603       107.000000      01_08_06                                
 77               (1,8,7)         200.000000       93.4827603       107.000000      01_08_07                                
 78               (1,8,8)         200.000000       93.3925634       107.000000      01_08_08                                
 79               (1,8,9)         200.000000       93.3014873       107.000000      01_08_09                                
 80               (1,8,10)        200.000000       93.2456551       107.000000      01_08_10                                
 81               (1,9,1)         200.000000       95.4757644       107.000000      01_09_01                                
 82               (1,9,2)         200.000000       95.6499035       107.000000      01_09_02                                
 83               (1,9,3)         200.000000       95.9607409       107.000000      01_09_03                                
 84               (1,9,4)         200.000000       96.3099261       107.000000      01_09_04                                
 85               (1,9,5)         200.000000       96.4585578       107.000000      01_09_05                                
 86               (1,9,6)         200.000000       96.4641579       107.000000      01_09_06                                
 87               (1,9,7)         200.000000       96.3266218       107.000000      01_09_07                                
 88               (1,9,8)         200.000000       95.9884042       107.000000      01_09_08                                
 89               (1,9,9)         200.000000       95.6860380       107.000000      01_09_09                                
 90               (1,9,10)        200.000000       95.5164733       107.000000      01_09_10                                
 91               (1,10,1)        200.000000       97.1227670       107.000000      01_10_01                                
 92               (1,10,2)        200.000000       97.5458158       107.000000      01_10_02                                
 93               (1,10,3)        200.000000       98.4546422       107.000000      01_10_03                                
 94               (1,10,8)        200.000000       98.4666483       107.000000      01_10_08                                
 95               (1,10,9)        200.000000       97.5659211       107.000000      01_10_09                                
 96              (1,10,10)        200.000000       97.1469794       107.000000      01_10_10                                
 97               (2,1,1)         300.000000       135.245078       157.000000      02_01_01                                
 98               (2,1,2)         300.000000       135.182832       157.000000      02_01_02                                
 99               (2,1,3)         300.000000       135.140066       157.000000      02_01_03                                
 100              (2,1,4)         300.000000       135.114097       157.000000      02_01_04                                
 101              (2,1,5)         300.000000       135.103152       157.000000      02_01_05                                
 102              (2,1,6)         300.000000       135.106322       157.000000      02_01_06                                
 103              (2,1,7)         300.000000       135.123523       157.000000      02_01_07                                
 104              (2,1,8)         300.000000       135.155498       157.000000      02_01_08                                
 105              (2,1,9)         300.000000       135.203884       157.000000      02_01_09                                
 106              (2,1,10)        300.000000       135.271268       157.000000      02_01_10                                
 107              (2,2,1)         300.000000       135.576652       157.000000      02_02_01                                
 108              (2,2,2)         300.000000       133.216112       157.000000      02_02_02                                
 109              (2,2,3)         300.000000       133.115249       157.000000      02_02_03                                
 110              (2,2,4)         300.000000       133.270826       157.000000      02_02_04                                
 111              (2,2,5)         300.000000       133.371834       157.000000      02_02_05                                
 112              (2,2,6)         300.000000       133.393361       157.000000      02_02_06                                
 113              (2,2,7)         300.000000       133.334193       157.000000      02_02_07                                
 114              (2,2,8)         300.000000       133.215852       157.000000      02_02_08                                
 115              (2,2,9)         300.000000       133.335503       157.000000      02_02_09                                
 116              (2,2,10)        300.000000       135.621420       157.000000      02_02_10                                
 117              (2,3,1)         300.000000       135.993154       157.000000      02_03_01                                
 118              (2,3,2)         300.000000       133.965982       157.000000      02_03_02                                
 119              (2,3,3)         300.000000       133.880917       157.000000      02_03_03                                
 120              (2,3,4)         300.000000       134.019430       157.000000      02_03_04                                
 121              (2,3,5)         300.000000       134.114197       157.000000      02_03_05                                
 122              (2,3,6)         300.000000       134.146650       157.000000      02_03_06                                
 123              (2,3,7)         300.000000       134.117001       157.000000      02_03_07                                
 124              (2,3,8)         300.000000       134.042243       157.000000      02_03_08                                
 125              (2,3,9)         300.000000       134.166165       157.000000      02_03_09                                
 126              (2,3,10)        300.000000       136.053573       157.000000      02_03_10                                
 127              (2,4,1)         300.000000       136.481578       157.000000      02_04_01                                
 128              (2,4,2)         300.000000       135.044481       157.000000      02_04_02                                
 129              (2,4,3)         300.000000       135.004147       157.000000      02_04_03                                
 130              (2,4,4)         300.000000       135.117035       157.000000      02_04_04                                
 131              (2,4,5)         300.000000       135.198561       157.000000      02_04_05                                
 132              (2,4,6)         300.000000       135.239960       157.000000      02_04_06                                
 133              (2,4,7)         300.000000       135.245762       157.000000      02_04_07                                
 134              (2,4,8)         300.000000       135.233336       157.000000      02_04_08                                
 135              (2,4,9)         300.000000       135.363590       157.000000      02_04_09                                
 136              (2,4,10)        300.000000       136.551959       157.000000      02_04_10                                
 137              (2,5,1)         300.000000       137.022196       157.000000      02_05_01                                
 138              (2,5,2)         300.000000       136.379491       157.000000      02_05_02                                
 139              (2,5,3)         300.000000       136.351165       157.000000      02_05_03                                
 140              (2,5,4)         300.000000       136.407066       157.000000      02_05_04                                
 141              (2,5,5)         300.000000       136.455254       157.000000      02_05_05                                
 142              (2,5,6)         300.000000       136.486502       157.000000      02_05_06                                
 143              (2,5,7)         300.000000       136.501147       157.000000      02_05_07                                
 144              (2,5,8)         300.000000       136.507170       157.000000      02_05_08                                
 145              (2,5,9)         300.000000       136.574642       157.000000      02_05_09                                
 146              (2,5,10)        300.000000       137.089113       157.000000      02_05_10                                
 147              (2,6,1)         300.000000       137.584606       157.000000      02_06_01                                
 148              (2,6,2)         300.000000       137.680977       157.000000      02_06_02                                
 149              (2,6,3)         300.000000       137.723310       157.000000      02_06_03                                
 150              (2,6,4)         300.000000       137.756353       157.000000      02_06_04                                
 151              (2,6,5)         300.000000       137.784046       157.000000      02_06_05                                
 152              (2,6,6)         300.000000       137.803297       157.000000      02_06_06                                
 153              (2,6,7)         300.000000       137.813131       157.000000      02_06_07                                
 154              (2,6,8)         300.000000       137.813860       157.000000      02_06_08                                
 155              (2,6,9)         300.000000       137.790732       157.000000      02_06_09                                
 156              (2,6,10)        300.000000       137.642757       157.000000      02_06_10                                
 157              (2,7,1)         300.000000       138.144460       157.000000      02_07_01                                
 158              (2,7,2)         300.000000       138.946049       157.000000      02_07_02                                
 159              (2,7,3)         300.000000       139.086268       157.000000      02_07_03                                
 160              (2,7,4)         300.000000       139.122588       157.000000      02_07_04                                
 161              (2,7,5)         300.000000       139.145028       157.000000      02_07_05                                
 162              (2,7,6)         300.000000       139.155957       157.000000      02_07_06                                
 163              (2,7,7)         300.000000       139.154521       157.000000      02_07_07                                
 164              (2,7,8)         300.000000       139.136433       157.000000      02_07_08                                
 165              (2,7,9)         300.000000       139.007522       157.000000      02_07_09                                
 166              (2,7,10)        300.000000       138.191774       157.000000      02_07_10                                
 167              (2,8,1)         300.000000       138.679323       157.000000      02_08_01                                
 168              (2,8,2)         300.000000       140.170568       157.000000      02_08_02                                
 169              (2,8,3)         300.000000       140.435959       157.000000      02_08_03                                
 170              (2,8,4)         300.000000       140.506838       157.000000      02_08_04                                
 171              (2,8,5)         300.000000       140.542372       157.000000      02_08_05                                
 172              (2,8,6)         300.000000       140.548316       157.000000      02_08_06                                
 173              (2,8,7)         300.000000       140.524180       157.000000      02_08_07                                
 174              (2,8,8)         300.000000       140.463208       157.000000      02_08_08                                
 175              (2,8,9)         300.000000       140.205068       157.000000      02_08_09                                
 176              (2,8,10)        300.000000       138.715153       157.000000      02_08_10                                
 177              (2,9,1)         300.000000       139.167738       157.000000      02_09_01                                
 178              (2,9,2)         300.000000       141.244035       157.000000      02_09_02                                
 179              (2,9,3)         300.000000       141.672657       157.000000      02_09_03                                
 180              (2,9,4)         300.000000       141.852937       157.000000      02_09_04                                
 181              (2,9,5)         300.000000       141.927933       157.000000      02_09_05                                
 182              (2,9,6)         300.000000       141.930821       157.000000      02_09_06                                
 183              (2,9,7)         300.000000       141.861537       157.000000      02_09_07                                
 184              (2,9,8)         300.000000       141.686820       157.000000      02_09_08                                
 185              (2,9,9)         300.000000       141.263044       157.000000      02_09_09                                
 186              (2,9,10)        300.000000       139.192022       157.000000      02_09_10                                
 187              (2,10,1)        300.000000       139.590622       157.000000      02_10_01                                
 188              (2,10,2)        300.000000       139.679544       157.000000      02_10_02                                
 189              (2,10,3)        300.000000       139.750536       157.000000      02_10_03                                
 190              (2,10,4)        300.000000       139.801202       157.000000      02_10_04                                
 191              (2,10,5)        300.000000       139.827172       157.000000      02_10_05                                
 192              (2,10,6)        300.000000       139.828588       157.000000      02_10_06                                
 193              (2,10,7)        300.000000       139.805456       157.000000      02_10_07                                
 194              (2,10,8)        300.000000       139.757651       157.000000      02_10_08                                
 195              (2,10,9)        300.000000       139.689524       157.000000      02_10_09                                
 196             (2,10,10)        300.000000       139.603461       157.000000      02_10_10                                
 197              (3,1,1)         700.000000       336.954791       357.000000      03_01_01                                
 198              (3,1,2)         700.000000       336.953672       357.000000      03_01_02                                
 199              (3,1,3)         700.000000       336.952455       357.000000      03_01_03                                
 200              (3,1,4)         700.000000       336.951656       357.000000      03_01_04                                
 201              (3,1,5)         700.000000       336.951445       357.000000      03_01_05                                
 202              (3,1,6)         700.000000       336.951841       357.000000      03_01_06                                
 203              (3,1,7)         700.000000       336.952803       357.000000      03_01_07                                
 204              (3,1,8)         700.000000       336.954229       357.000000      03_01_08                                
 205              (3,1,9)         700.000000       336.955885       357.000000      03_01_09                                
 206              (3,1,10)        700.000000       336.957223       357.000000      03_01_10                                
 207              (3,2,1)         700.000000       336.979785       357.000000      03_02_01                                
 208              (3,2,2)         700.000000       336.975310       357.000000      03_02_02                                
 209              (3,2,3)         700.000000       336.972536       357.000000      03_02_03                                
 210              (3,2,4)         700.000000       336.971356       357.000000      03_02_04                                
 211              (3,2,5)         700.000000       336.971191       357.000000      03_02_05                                
 212              (3,2,6)         700.000000       336.971726       357.000000      03_02_06                                
 213              (3,2,7)         700.000000       336.972898       357.000000      03_02_07                                
 214              (3,2,8)         700.000000       336.974895       357.000000      03_02_08                                
 215              (3,2,9)         700.000000       336.978182       357.000000      03_02_09                                
 216              (3,2,10)        700.000000       336.982804       357.000000      03_02_10                                
 217              (3,3,1)         700.000000       337.039517       357.000000      03_03_01                                
 218              (3,3,2)         700.000000       337.035252       357.000000      03_03_02                                
 219              (3,3,3)         700.000000       337.032531       357.000000      03_03_03                                
 220              (3,3,4)         700.000000       337.031399       357.000000      03_03_04                                
 221              (3,3,5)         700.000000       337.031331       357.000000      03_03_05                                
 222              (3,3,6)         700.000000       337.032008       357.000000      03_03_06                                
 223              (3,3,7)         700.000000       337.033350       357.000000      03_03_07                                
 224              (3,3,8)         700.000000       337.035513       357.000000      03_03_08                                
 225              (3,3,9)         700.000000       337.038851       357.000000      03_03_09                                
 226              (3,3,10)        700.000000       337.043211       357.000000      03_03_10                                
 227              (3,4,1)         700.000000       337.128867       357.000000      03_04_01                                
 228              (3,4,2)         700.000000       337.125846       357.000000      03_04_02                                
 229              (3,4,3)         700.000000       337.123988       357.000000      03_04_03                                
 230              (3,4,4)         700.000000       337.123331       357.000000      03_04_04                                
 231              (3,4,5)         700.000000       337.123500       357.000000      03_04_05                                
 232              (3,4,6)         700.000000       337.124254       357.000000      03_04_06                                
 233              (3,4,7)         700.000000       337.125514       357.000000      03_04_07                                
 234              (3,4,8)         700.000000       337.127348       357.000000      03_04_08                                
 235              (3,4,9)         700.000000       337.129908       357.000000      03_04_09                                
 236              (3,4,10)        700.000000       337.132931       357.000000      03_04_10                                
 237              (3,5,1)         700.000000       337.238066       357.000000      03_05_01                                
 238              (3,5,2)         700.000000       337.236768       357.000000      03_05_02                                
 239              (3,5,3)         700.000000       337.236080       357.000000      03_05_03                                
 240              (3,5,4)         700.000000       337.236035       357.000000      03_05_04                                
 241              (3,5,5)         700.000000       337.236424       357.000000      03_05_05                                
 242              (3,5,6)         700.000000       337.237086       357.000000      03_05_06                                
 243              (3,5,7)         700.000000       337.237945       357.000000      03_05_07                                
 244              (3,5,8)         700.000000       337.239004       357.000000      03_05_08                                
 245              (3,5,9)         700.000000       337.240308       357.000000      03_05_09                                
 246              (3,5,10)        700.000000       337.241715       357.000000      03_05_10                                
 247              (3,6,1)         700.000000       337.355050       357.000000      03_06_01                                
 248              (3,6,2)         700.000000       337.355533       357.000000      03_06_02                                
 249              (3,6,3)         700.000000       337.356217       357.000000      03_06_03                                
 250              (3,6,4)         700.000000       337.356956       357.000000      03_06_04                                
 251              (3,6,5)         700.000000       337.357629       357.000000      03_06_05                                
 252              (3,6,6)         700.000000       337.358136       357.000000      03_06_06                                
 253              (3,6,7)         700.000000       337.358419       357.000000      03_06_07                                
 254              (3,6,8)         700.000000       337.358461       357.000000      03_06_08                                
 255              (3,6,9)         700.000000       337.358279       357.000000      03_06_09                                
 256              (3,6,10)        700.000000       337.357963       357.000000      03_06_10                                
 257              (3,7,1)         700.000000       337.467347       357.000000      03_07_01                                
 258              (3,7,2)         700.000000       337.469593       357.000000      03_07_02                                
 259              (3,7,3)         700.000000       337.471723       357.000000      03_07_03                                
 260              (3,7,4)         700.000000       337.473350       357.000000      03_07_04                                
 261              (3,7,5)         700.000000       337.474379       357.000000      03_07_05                                
 262              (3,7,6)         700.000000       337.474743       357.000000      03_07_06                                
 263              (3,7,7)         700.000000       337.474402       357.000000      03_07_07                                
 264              (3,7,8)         700.000000       337.473345       357.000000      03_07_08                                
 265              (3,7,9)         700.000000       337.471602       357.000000      03_07_09                                
 266              (3,7,10)        700.000000       337.469526       357.000000      03_07_10                                
 267              (3,8,1)         700.000000       337.562534       357.000000      03_08_01                                
 268              (3,8,2)         700.000000       337.566398       357.000000      03_08_02                                
 269              (3,8,3)         700.000000       337.569869       357.000000      03_08_03                                
 270              (3,8,4)         700.000000       337.572348       357.000000      03_08_04                                
 271              (3,8,5)         700.000000       337.573741       357.000000      03_08_05                                
 272              (3,8,6)         700.000000       337.573995       357.000000      03_08_06                                
 273              (3,8,7)         700.000000       337.573085       357.000000      03_08_07                                
 274              (3,8,8)         700.000000       337.571013       357.000000      03_08_08                                
 275              (3,8,9)         700.000000       337.567832       357.000000      03_08_09                                
 276              (3,8,10)        700.000000       337.564115       357.000000      03_08_10                                
 277              (3,9,1)         700.000000       337.628868       357.000000      03_09_01                                
 278              (3,9,2)         700.000000       337.633520       357.000000      03_09_02                                
 279              (3,9,3)         700.000000       337.637590       357.000000      03_09_03                                
 280              (3,9,4)         700.000000       337.640475       357.000000      03_09_04                                
 281              (3,9,5)         700.000000       337.642033       357.000000      03_09_05                                
 282              (3,9,6)         700.000000       337.642215       357.000000      03_09_06                                
 283              (3,9,7)         700.000000       337.641002       357.000000      03_09_07                                
 284              (3,9,8)         700.000000       337.638412       357.000000      03_09_08                                
 285              (3,9,9)         700.000000       337.634559       357.000000      03_09_09                                
 286              (3,9,10)        700.000000       337.630024       357.000000      03_09_10                                
 287              (3,10,1)        700.000000       337.658126       357.000000      03_10_01                                
 288              (3,10,2)        700.000000       337.659643       357.000000      03_10_02                                
 289              (3,10,3)        700.000000       337.661631       357.000000      03_10_03                                
 290              (3,10,4)        700.000000       337.663363       357.000000      03_10_04                                
 291              (3,10,5)        700.000000       337.664402       357.000000      03_10_05                                
 292              (3,10,6)        700.000000       337.664546       357.000000      03_10_06                                
 293              (3,10,7)        700.000000       337.663781       357.000000      03_10_07                                
 294              (3,10,8)        700.000000       337.662285       357.000000      03_10_08                                
 295              (3,10,9)        700.000000       337.660471       357.000000      03_10_09                                
 296             (3,10,10)        700.000000       337.659048       357.000000      03_10_10                                
 ---------------------------------------------------------------------------------------------------------------------------



end timestep


start timestep kper="2" kstp="2" mode="normal"


end timestep


start timestep kper="2" kstp="3" mode="normal"


end timestep


start timestep kper="2" kstp="4" mode="normal"


end timestep


start timestep kper="2" kstp="5" mode="normal"


end timestep


start timestep kper="2" kstp="6" mode="normal"

 UBDSV1 SAVING  CSUB-CGELASTIC  ON UNIT   1021 AT TIME STEP      6, STRESS PERIOD      2
 UBDSV06 SAVING    CSUB-ELASTIC  IN MODEL CSUB_SUB03A      PACKAGE CSUB_SUB03A     CONNECTED TO MODEL CSUB_SUB03A      PACKAGE CSUB             ON UNIT   1021 AT TIME STEP      6, STRESS PERIOD      2
 UBDSV06 SAVING  CSUB-INELASTIC  IN MODEL CSUB_SUB03A      PACKAGE CSUB_SUB03A     CONNECTED TO MODEL CSUB_SUB03A      PACKAGE CSUB             ON UNIT   1021 AT TIME STEP      6, STRESS PERIOD      2
 UBDSV1 SAVING  CSUB-WATERCOMP  ON UNIT   1021 AT TIME STEP      6, STRESS PERIOD      2

 WEL PACKAGE (WEL_0) FLOW RATES   PERIOD      2   STEP        6
 -----------------------------------------------
   NUMBER   CELLID                    RATE      
 -----------------------------------------------
     1      (3,3,6)              -14000.000     
     2      (3,3,7)              -8000.0000     
     3      (3,4,6)              -5000.0000     
     4      (3,4,7)              -3000.0000     
 -----------------------------------------------




 CSUB-COMPACTION WILL BE SAVED ON UNIT 1017 AT END OF TIME STEP    6, STRESS PERIOD    2
1
  HEAD IN LAYER   1 AT END OF TIME STEP   6 IN STRESS PERIOD    2
  ---------------------------------------------------------------------------

                1               2               3               4               5               6               7               8               9              10
 ................................................................................................................................................................
   1      20.5417         20.1113         19.2951         18.7687         18.4955         18.4614         18.6693         19.1390         19.9129         20.3203    
   2      19.3660         18.7550         18.2303         17.8477         17.6293         17.5836         17.7136         18.0167         18.4781         19.0522    
   3      17.7312         17.1361         16.6778         16.3511         16.1542         16.0868         16.1501         16.3449         16.6779         17.1769    
   4      15.5660         15.0477         14.6762         14.4148         14.2465         14.1620         14.1528         14.2054         14.2967         14.3845    
   5      12.5525         12.4421         12.3042         12.1771         12.0787         12.0154         11.9867         11.9860         12.0012         12.0164    
   6      10.0433         10.0063         9.94820         9.88557         9.83117         9.79233         9.77101         9.76441         9.76642         9.77000    
   7      7.73245         7.70541         7.66062         7.61170         7.57226         7.55026         7.54742         7.55928         7.57602         7.58771    
   8      5.56884         5.51748         5.43186         5.34236         5.28594         5.27401         5.30754         5.37711         5.44790         5.49130    
   9      3.63935         3.50094         3.25363         2.97556         2.85642         2.85066         2.95838         3.22515         3.46373         3.59742    
  10      2.28299         1.94726         1.22607         0.00000         0.00000         0.00000         0.00000         1.21367         1.92648         2.25797    
1
  HEAD IN LAYER   2 AT END OF TIME STEP   6 IN STRESS PERIOD    2
  ---------------------------------------------------------------------------

                1               2               3               4               5               6               7               8               9              10
 ................................................................................................................................................................
   1      3.13069         3.16846         3.18893         3.19542         3.19060         3.17635         3.15352         3.12152         3.07844         3.02127    
   2      2.90436         4.72985         4.55924         4.10273         3.64301         3.30633         3.37366         3.72929         3.96631         2.72988    
   3      2.60721         3.91327         3.54398         2.76848         1.64472        0.106536        0.513895         1.83802         2.65867         2.38747    
   4      2.25632         3.13037         2.82372         2.26170         1.53861        0.709713        0.847720         1.51442         1.98988         2.02187    
   5      1.86727         2.27632         2.14679         1.90781         1.64960         1.44266         1.42029         1.53456         1.65711         1.65076    
   6      1.46151         1.43295         1.35445         1.26058         1.16665         1.09628         1.07023         1.08363         1.13140         1.27720    
   7      1.05490        0.552453        0.441989        0.390350        0.347736        0.318986        0.308740        0.318804        0.403174        0.907111    
   8     0.663376       -0.328154       -0.518328       -0.583504       -0.623184       -0.638114       -0.626597       -0.585044       -0.413958        0.552339    
   9     0.302553        -1.12294        -1.43500        -1.58165        -1.64721        -1.65521        -1.60506        -1.47227        -1.17312        0.227588    
  10    -1.338869E-02   -8.067976E-02   -0.135402       -0.175639       -0.197904       -0.202296       -0.188822       -0.157392       -0.111474       -5.298901E-02
1
  HEAD IN LAYER   3 AT END OF TIME STEP   6 IN STRESS PERIOD    2
  ---------------------------------------------------------------------------

                1               2               3               4               5               6               7               8               9              10
 ................................................................................................................................................................
   1     -8.38867        -8.51522        -8.75351        -9.06787        -9.39479        -9.64156        -9.71429        -9.64059        -9.52190        -9.44131    
   2     -8.63858        -8.85074        -9.27847        -9.90498        -10.6603        -11.3283        -11.3183        -10.8492        -10.3980        -10.1446    
   3     -8.84435        -9.18390        -9.92730        -11.2161        -13.3324        -16.8379        -15.8960        -13.1300        -11.6208        -10.9495    
   4     -8.53148        -8.79967        -9.36566        -10.2778        -11.5971        -13.3662        -13.0183        -11.6151        -10.7026        -10.2578    
   5     -7.92476        -8.05874        -8.32336        -8.70012        -9.13564        -9.50066        -9.51970        -9.28562        -9.03911        -8.89409    
   6     -7.40148        -7.45100        -7.54502        -7.67182        -7.81040        -7.91677        -7.94975        -7.91935        -7.86838        -7.83320    
   7     -7.07186        -7.09069        -7.12441        -7.16747        -7.21166        -7.24661        -7.26466        -7.26669        -7.26027        -7.25386    
   8     -6.83195        -6.84264        -6.85987        -6.88072        -6.90175        -6.91941        -6.93127        -6.93693        -6.93784        -6.93626    
   9     -6.66204        -6.66933        -6.67972        -6.69160        -6.70339        -6.71357        -6.72102        -6.72524        -6.72633        -6.72501    
  10     -6.57170        -6.57538        -6.58165        -6.58934        -6.59730        -6.60452        -6.61027        -6.61419        -6.61631        -6.61702    

 HEAD WILL BE SAVED ON UNIT 1022 AT END OF TIME STEP    6, STRESS PERIOD    2


  VOLUME BUDGET FOR ENTIRE MODEL AT END OF TIME STEP    6, STRESS PERIOD   2
  ---------------------------------------------------------------------------------------------------

     CUMULATIVE VOLUME      L**3       RATES FOR THIS TIME STEP      L**3/T          PACKAGE NAME    
     ------------------                 ------------------------                     ----------------

           IN:                                      IN:
           ---                                      ---
              STO-SS =           0.0000                STO-SS =           0.0000     STORAGE                          
      CSUB-CGELASTIC =     2269979.3710        CSUB-CGELASTIC =        1064.1861     CSUB                             
        CSUB-ELASTIC =     1082355.7075          CSUB-ELASTIC =         373.4821     CSUB                             
      CSUB-INELASTIC =     6106626.8415        CSUB-INELASTIC =       22957.7512     CSUB                             
      CSUB-WATERCOMP =           0.0000        CSUB-WATERCOMP =           0.0000     CSUB                             
                 WEL =           0.0000                   WEL =           0.0000     WEL_0                            
                RCHA =     9888750.0000                  RCHA =       27000.0000     RCHA_0                           
                 CHD =         487.7661                   CHD =           4.5880     CHD_0                            

            TOTAL IN =    19348199.6861              TOTAL IN =       51400.0073

          OUT:                                     OUT:
          ----                                     ----
              STO-SS =           0.0000                STO-SS =           0.0000     STORAGE                          
      CSUB-CGELASTIC =           0.0000        CSUB-CGELASTIC =           0.0000     CSUB                             
        CSUB-ELASTIC =           0.0000          CSUB-ELASTIC =           0.0000     CSUB                             
      CSUB-INELASTIC =           0.0000        CSUB-INELASTIC =           0.0000     CSUB                             
      CSUB-WATERCOMP =           0.0000        CSUB-WATERCOMP =           0.0000     CSUB                             
                 WEL =    10957500.0000                   WEL =       30000.0000     WEL_0                            
                RCHA =           0.0000                  RCHA =           0.0000     RCHA_0                           
                 CHD =     8390699.6860                   CHD =       21400.0073     CHD_0                            

           TOTAL OUT =    19348199.6860             TOTAL OUT =       51400.0073

            IN - OUT =       9.0245E-05              IN - OUT =       5.7125E-07

 PERCENT DISCREPANCY =           0.00     PERCENT DISCREPANCY =           0.00




         TIME SUMMARY AT END OF TIME STEP    6 IN STRESS PERIOD    2
                    SECONDS     MINUTES      HOURS       DAYS        YEARS
                    -----------------------------------------------------------
   TIME STEP LENGTH 9.18555E+06 1.53093E+05  2551.5      106.31     0.29107    
 STRESS PERIOD TIME 3.15576E+07 5.25960E+05  8766.0      365.25      1.0000    
         TOTAL TIME 3.16440E+07 5.27400E+05  8790.0      366.25      1.0027    


end timestep


start timestep kper="3" kstp="1" mode="normal"


 OUTPUT CONTROL FOR STRESS PERIOD 3 IS REPEATED USING SETTINGS FROM A PREVIOUS STRESS PERIOD.


 STRESS PERIOD 3 IS TRANSIENT


 REUSING CSUBS FROM LAST STRESS PERIOD

 REUSING WELS FROM LAST STRESS PERIOD

 REUSING RCHS FROM LAST STRESS PERIOD

 REUSING CHDS FROM LAST STRESS PERIOD

end timestep


start timestep kper="3" kstp="2" mode="normal"


end timestep


start timestep kper="3" kstp="3" mode="normal"


end timestep


start timestep kper="3" kstp="4" mode="normal"


end timestep


start timestep kper="3" kstp="5" mode="normal"


end timestep


start timestep kper="3" kstp="6" mode="normal"

 UBDSV1 SAVING  CSUB-CGELASTIC  ON UNIT   1021 AT TIME STEP      6, STRESS PERIOD      3
 UBDSV06 SAVING    CSUB-ELASTIC  IN MODEL CSUB_SUB03A      PACKAGE CSUB_SUB03A     CONNECTED TO MODEL CSUB_SUB03A      PACKAGE CSUB             ON UNIT   1021 AT TIME STEP      6, STRESS PERIOD      3
 UBDSV06 SAVING  CSUB-INELASTIC  IN MODEL CSUB_SUB03A      PACKAGE CSUB_SUB03A     CONNECTED TO MODEL CSUB_SUB03A      PACKAGE CSUB             ON UNIT   1021 AT TIME STEP      6, STRESS PERIOD      3
 UBDSV1 SAVING  CSUB-WATERCOMP  ON UNIT   1021 AT TIME STEP      6, STRESS PERIOD      3

 WEL PACKAGE (WEL_0) FLOW RATES   PERIOD      3   STEP        6
 -----------------------------------------------
   NUMBER   CELLID                    RATE      
 -----------------------------------------------
     1      (3,3,6)              -14000.000     
     2      (3,3,7)              -8000.0000     
     3      (3,4,6)              -5000.0000     
     4      (3,4,7)              -3000.0000     
 -----------------------------------------------




 CSUB-COMPACTION WILL BE SAVED ON UNIT 1017 AT END OF TIME STEP    6, STRESS PERIOD    3
1
  HEAD IN LAYER   1 AT END OF TIME STEP   6 IN STRESS PERIOD    3
  ---------------------------------------------------------------------------

                1               2               3               4               5               6               7               8               9              10
 ................................................................................................................................................................
   1      20.0980         19.6674         18.8507         18.3240         18.0504         18.0160         18.2237         18.6933         19.4673         19.8748    
   2      18.9320         18.3205         17.7952         17.4120         17.1930         17.1469         17.2767         17.5797         18.0414         18.6160    
   3      17.3174         16.7218         16.2628         15.9354         15.7379         15.6701         15.7331         15.9278         16.2612         16.7607    
   4      15.1829         14.6642         14.2921         14.0301         13.8612         13.7763         13.7668         13.8193         13.9107         13.9990    
   5      12.2097         12.0991         11.9609         11.8334         11.7345         11.6708         11.6419         11.6409         11.6561         11.6715    
   6      9.74915         9.71231         9.65429         9.59167         9.53711         9.49794         9.47616         9.46906         9.47066         9.47401    
   7      7.49324         7.46695         7.42309         7.37497         7.33586         7.31362         7.30999         7.32070         7.33627         7.34712    
   8      5.38823         5.33888         5.25621         5.16956         5.11464         5.10255         5.13428         5.20076         5.26842         5.30974    
   9      3.51568         3.38249         3.14410         2.87588         2.76079         2.75495         2.85845         3.11520         3.34473         3.47312    
  10      2.20152         1.87781         1.18238         0.00000         0.00000         0.00000         0.00000         1.16977         1.85669         2.17607    
1
  HEAD IN LAYER   2 AT END OF TIME STEP   6 IN STRESS PERIOD    3
  ---------------------------------------------------------------------------

                1               2               3               4               5               6               7               8               9              10
 ................................................................................................................................................................
   1      1.36921         1.39280         1.40114         1.39771         1.38541         1.36637         1.34169         1.31103         1.27264         1.22366    
   2      1.20748         2.72126         2.46952         1.95465         1.43647         1.04820         1.07694         1.41228         1.70509        0.978982    
   3     0.985304         1.95536         1.49304        0.650152       -0.540384        -2.13586        -1.76759       -0.459396        0.429565        0.700382    
   4     0.720030         1.32761        0.940040        0.314628       -0.471675        -1.35405        -1.25228       -0.600594       -6.848490E-02    0.415846    
   5     0.425015        0.726464        0.547079        0.257613       -5.171481E-02   -0.301899       -0.354992       -0.256537       -0.107778        0.140245    
   6     0.116862        0.178838        8.834121E-02   -3.910342E-02   -0.167546       -0.268168       -0.317208       -0.318990       -0.280620       -0.129282    
   7    -0.194925       -0.426951       -0.514332       -0.582494       -0.645287       -0.692861       -0.718551       -0.721596       -0.675308       -0.394472    
   8    -0.500553        -1.11352        -1.25791        -1.32627        -1.37373        -1.39724        -1.39423        -1.36326        -1.24708       -0.651229    
   9    -0.788193        -1.80266        -2.06021        -2.20145        -2.26797        -2.27956        -2.23527        -2.11379        -1.87442       -0.890133    
  10     -1.04525        -1.10100        -1.14741        -1.18258        -1.20313        -1.20912        -1.20056        -1.17737        -1.14294        -1.09916    
1
  HEAD IN LAYER   3 AT END OF TIME STEP   6 IN STRESS PERIOD    3
  ---------------------------------------------------------------------------

                1               2               3               4               5               6               7               8               9              10
 ................................................................................................................................................................
   1     -11.9638        -12.1278        -12.4347        -12.8380        -13.2608        -13.5980        -13.7465        -13.7292        -13.6466        -13.5833    
   2     -12.1935        -12.4467        -12.9490        -13.6710        -14.5278        -15.2896        -15.3560        -14.9418        -14.5244        -14.2862    
   3     -12.2784        -12.6621        -13.4852        -14.8750        -17.0971        -20.6982        -19.8316        -17.1172        -15.6378        -14.9790    
   4     -11.6557        -11.9671        -12.6101        -13.6196        -15.0402        -16.8996        -16.6215        -15.2650        -14.3782        -13.9438    
   5     -10.5421        -10.7132        -11.0450        -11.5068        -12.0299        -12.4721        -12.5506        -12.3563        -12.1320        -11.9958    
   6     -9.39760        -9.47791        -9.62772        -9.82349        -10.0279        -10.1920        -10.2703        -10.2713        -10.2389        -10.2120    
   7     -8.47090        -8.50720        -8.57328        -8.65778        -8.74536        -8.81981        -8.86946        -8.89368        -8.90075        -8.90073    
   8     -7.82423        -7.84154        -7.87186        -7.91015        -7.95034        -7.98645        -8.01419        -8.03216        -8.04152        -8.04458    
   9     -7.43290        -7.44237        -7.45772        -7.47665        -7.49657        -7.51497        -7.52990        -7.54031        -7.54602        -7.54754    
  10     -7.25060        -7.25539        -7.26391        -7.27483        -7.28665        -7.29794        -7.30754        -7.31475        -7.31930        -7.32135    

 HEAD WILL BE SAVED ON UNIT 1022 AT END OF TIME STEP    6, STRESS PERIOD    3


  VOLUME BUDGET FOR ENTIRE MODEL AT END OF TIME STEP    6, STRESS PERIOD   3
  ---------------------------------------------------------------------------------------------------

     CUMULATIVE VOLUME      L**3       RATES FOR THIS TIME STEP      L**3/T          PACKAGE NAME    
     ------------------                 ------------------------                     ----------------

           IN:                                      IN:
           ---                                      ---
              STO-SS =           0.0000                STO-SS =           0.0000     STORAGE                          
      CSUB-CGELASTIC =     2531311.6130        CSUB-CGELASTIC =         680.3885     CSUB                             
        CSUB-ELASTIC =     1134077.0721          CSUB-ELASTIC =         117.3617     CSUB                             
      CSUB-INELASTIC =    14522153.4268        CSUB-INELASTIC =       22832.1687     CSUB                             
      CSUB-WATERCOMP =           0.0000        CSUB-WATERCOMP =           0.0000     CSUB                             
                 WEL =           0.0000                   WEL =           0.0000     WEL_0                            
                RCHA =    19750500.0000                  RCHA =       27000.0000     RCHA_0                           
                 CHD =        7923.1328                   CHD =          28.7723     CHD_0                            

            TOTAL IN =    37945965.2446              TOTAL IN =       50658.6912

          OUT:                                     OUT:
          ----                                     ----
              STO-SS =           0.0000                STO-SS =           0.0000     STORAGE                          
      CSUB-CGELASTIC =           0.0000        CSUB-CGELASTIC =           0.0000     CSUB                             
        CSUB-ELASTIC =           0.0000          CSUB-ELASTIC =           0.0000     CSUB                             
      CSUB-INELASTIC =           0.0000        CSUB-INELASTIC =           0.0000     CSUB                             
      CSUB-WATERCOMP =           0.0000        CSUB-WATERCOMP =           0.0000     CSUB                             
                 WEL =    21915000.0000                   WEL =       30000.0000     WEL_0                            
                RCHA =           0.0000                  RCHA =           0.0000     RCHA_0                           
                 CHD =    16030965.2444                   CHD =       20658.6912     CHD_0                            

           TOTAL OUT =    37945965.2444             TOTAL OUT =       50658.6912

            IN - OUT =       2.6226E-04              IN - OUT =       6.0689E-08

 PERCENT DISCREPANCY =           0.00     PERCENT DISCREPANCY =           0.00




         TIME SUMMARY AT END OF TIME STEP    6 IN STRESS PERIOD    3
                    SECONDS     MINUTES      HOURS       DAYS        YEARS
                    -----------------------------------------------------------
   TIME STEP LENGTH 9.18555E+06 1.53093E+05  2551.5      106.31     0.29107    
 STRESS PERIOD TIME 3.15576E+07 5.25960E+05  8766.0      365.25      1.0000    
         TOTAL TIME 6.32016E+07 1.05336E+06  17556.      731.50      2.0027    


end timestep


start timestep kper="4" kstp="1" mode="normal"


 OUTPUT CONTROL FOR STRESS PERIOD 4 IS REPEATED USING SETTINGS FROM A PREVIOUS STRESS PERIOD.


 STRESS PERIOD 4 IS TRANSIENT


 REUSING CSUBS FROM LAST STRESS PERIOD

 REUSING WELS FROM LAST STRESS PERIOD

 REUSING RCHS FROM LAST STRESS PERIOD

 REUSING CHDS FROM LAST STRESS PERIOD

end timestep


start timestep kper="4" kstp="2" mode="normal"


end timestep


start timestep kper="4" kstp="3" mode="normal"


end timestep


start timestep kper="4" kstp="4" mode="normal"


end timestep


start timestep kper="4" kstp="5" mode="normal"


end timestep


start timestep kper="4" kstp="6" mode="normal"

 UBDSV1 SAVING  CSUB-CGELASTIC  ON UNIT   1021 AT TIME STEP      6, STRESS PERIOD      4
 UBDSV06 SAVING    CSUB-ELASTIC  IN MODEL CSUB_SUB03A      PACKAGE CSUB_SUB03A     CONNECTED TO MODEL CSUB_SUB03A      PACKAGE CSUB             ON UNIT   1021 AT TIME STEP      6, STRESS PERIOD      4
 UBDSV06 SAVING  CSUB-INELASTIC  IN MODEL CSUB_SUB03A      PACKAGE CSUB_SUB03A     CONNECTED TO MODEL CSUB_SUB03A      PACKAGE CSUB             ON UNIT   1021 AT TIME STEP      6, STRESS PERIOD      4
 UBDSV1 SAVING  CSUB-WATERCOMP  ON UNIT   1021 AT TIME STEP      6, STRESS PERIOD      4

 WEL PACKAGE (WEL_0) FLOW RATES   PERIOD      4   STEP        6
 -----------------------------------------------
   NUMBER   CELLID                    RATE      
 -----------------------------------------------
     1      (3,3,6)              -14000.000     
     2      (3,3,7)              -8000.0000     
     3      (3,4,6)              -5000.0000     
     4      (3,4,7)              -3000.0000     
 -----------------------------------------------




 CSUB-COMPACTION WILL BE SAVED ON UNIT 1017 AT END OF TIME STEP    6, STRESS PERIOD    4
1
  HEAD IN LAYER   1 AT END OF TIME STEP   6 IN STRESS PERIOD    4
  ---------------------------------------------------------------------------

                1               2               3               4               5               6               7               8               9              10
 ................................................................................................................................................................
   1      19.7503         19.3196         18.5028         17.9759         17.7022         17.6678         17.8755         18.3452         19.1192         19.5267    
   2      18.5917         17.9799         17.4544         17.0709         16.8518         16.8056         16.9354         17.2385         17.7004         18.2753    
   3      16.9928         16.3968         15.9375         15.6098         15.4122         15.3443         15.4073         15.6022         15.9357         16.4356    
   4      14.8817         14.3627         13.9904         13.7282         13.5592         13.4742         13.4647         13.5172         13.6088         13.6974    
   5      11.9393         11.8286         11.6902         11.5627         11.4638         11.4000         11.3709         11.3700         11.3851         11.4006    
   6      9.51591         9.47921         9.42139         9.35893         9.30444         9.26520         9.24322         9.23586         9.23720         9.24040    
   7      7.30250         7.27679         7.23372         7.18632         7.14761         7.12532         7.12118         7.13107         7.14580         7.15607    
   8      5.24337         5.19561         5.11534         5.03103         4.97740         4.96527         4.99562         5.05968         5.12490         5.16462    
   9      3.41589         3.28692         3.05578         2.79556         2.68379         2.67791         2.77804         3.02674         3.24898         3.37314    
  10      2.13538         1.82144         1.14691         0.00000         0.00000         0.00000         0.00000         1.13423         1.80021         2.10981    
1
  HEAD IN LAYER   2 AT END OF TIME STEP   6 IN STRESS PERIOD    4
  ---------------------------------------------------------------------------

                1               2               3               4               5               6               7               8               9              10
 ................................................................................................................................................................
   1    -0.134207       -0.119825       -0.118625       -0.127127       -0.142422       -0.162337       -0.185735       -0.212896       -0.245495       -0.286360    
   2    -0.250907        0.972182        0.673614        0.148001       -0.379257       -0.776527       -0.755802       -0.423799       -8.878220E-02   -0.489284    
   3    -0.418811        0.288829       -0.217599        -1.07105        -2.27063        -3.87513        -3.51493        -2.21027        -1.28188       -0.715719    
   4    -0.621738       -0.205533       -0.626522        -1.26118        -2.05583        -2.94658        -2.85238        -2.20456        -1.64364       -0.938952    
   5    -0.848562       -0.639200       -0.836742        -1.13349        -1.45013        -1.70778        -1.76772        -1.67367        -1.51109        -1.14647    
   6     -1.08576       -0.999142        -1.08968        -1.22202        -1.35651        -1.46350        -1.51857        -1.52544        -1.49093        -1.34434    
   7     -1.32742        -1.41508        -1.48376        -1.55423        -1.62170        -1.67453        -1.70552        -1.71452        -1.69031        -1.53804    
   8     -1.56744        -1.92929        -2.03788        -2.10577        -2.15646        -2.18428        -2.18624        -2.16254        -2.08499        -1.72729    
   9     -1.79727        -2.49293        -2.70358        -2.84058        -2.90848        -2.92358        -2.88460        -2.77295        -2.58283        -1.90604    
  10     -2.00664        -2.05290        -2.09227        -2.12289        -2.14142        -2.14792        -2.14236        -2.12467        -2.09815        -2.06464    
1
  HEAD IN LAYER   3 AT END OF TIME STEP   6 IN STRESS PERIOD    4
  ---------------------------------------------------------------------------

                1               2               3               4               5               6               7               8               9              10
 ................................................................................................................................................................
   1     -15.2863        -15.4557        -15.7727        -16.1896        -16.6283        -16.9820        -17.1459        -17.1414        -17.0681        -17.0096    
   2     -15.4274        -15.6864        -16.1989        -16.9345        -17.8070        -18.5850        -18.6665        -18.2649        -17.8562        -17.6221    
   3     -15.3349        -15.7242        -16.5571        -17.9601        -20.1973        -23.8139        -22.9617        -20.2592        -18.7881        -18.1333    
   4     -14.4527        -14.7691        -15.4212        -16.4428        -17.8774        -19.7512        -19.4864        -18.1410        -17.2621        -16.8314    
   5     -13.0142        -13.1896        -13.5294        -14.0019        -14.5374        -14.9924        -15.0830        -14.8988        -14.6815        -14.5489    
   6     -11.5085        -11.5922        -11.7486        -11.9535        -12.1685        -12.3436        -12.4324        -12.4421        -12.4160        -12.3925    
   7     -10.2215        -10.2604        -10.3317        -10.4236        -10.5200        -10.6037        -10.6621        -10.6939        -10.7065        -10.7096    
   8     -9.25604        -9.27520        -9.30967        -9.35400        -9.40143        -9.44523        -9.48035        -9.50474        -9.51897        -9.52491    
   9     -8.62538        -8.63632        -8.65518        -8.67927        -8.70538        -8.73037        -8.75165        -8.76760        -8.77759        -8.78173    
  10     -8.31448        -8.32108        -8.33314        -8.34894        -8.36650        -8.38382        -8.39918        -8.41132        -8.41953        -8.42356    

 HEAD WILL BE SAVED ON UNIT 1022 AT END OF TIME STEP    6, STRESS PERIOD    4


  VOLUME BUDGET FOR ENTIRE MODEL AT END OF TIME STEP    6, STRESS PERIOD   4
  ---------------------------------------------------------------------------------------------------

     CUMULATIVE VOLUME      L**3       RATES FOR THIS TIME STEP      L**3/T          PACKAGE NAME    
     ------------------                 ------------------------                     ----------------

           IN:                                      IN:
           ---                                      ---
              STO-SS =           0.0000                STO-SS =           0.0000     STORAGE                          
      CSUB-CGELASTIC =     2775462.6701        CSUB-CGELASTIC =         660.7663     CSUB                             
        CSUB-ELASTIC =     1175862.4150          CSUB-ELASTIC =         112.7720     CSUB                             
      CSUB-INELASTIC =    22730552.5327        CSUB-INELASTIC =       22234.9897     CSUB                             
      CSUB-WATERCOMP =           0.0000        CSUB-WATERCOMP =           0.0000     CSUB                             
                 WEL =           0.0000                   WEL =           0.0000     WEL_0                            
                RCHA =    29612250.0000                  RCHA =       27000.0000     RCHA_0                           
                 CHD =       23291.8562                   CHD =          51.3275     CHD_0                            

            TOTAL IN =    56317419.4740              TOTAL IN =       50059.8554

          OUT:                                     OUT:
          ----                                     ----
              STO-SS =           0.0000                STO-SS =           0.0000     STORAGE                          
      CSUB-CGELASTIC =           0.0000        CSUB-CGELASTIC =           0.0000     CSUB                             
        CSUB-ELASTIC =           0.0000          CSUB-ELASTIC =           0.0000     CSUB                             
      CSUB-INELASTIC =           0.0000        CSUB-INELASTIC =           0.0000     CSUB                             
      CSUB-WATERCOMP =           0.0000        CSUB-WATERCOMP =           0.0000     CSUB                             
                 WEL =    32872500.0000                   WEL =       30000.0000     WEL_0                            
                RCHA =           0.0000                  RCHA =           0.0000     RCHA_0                           
                 CHD =    23444919.4737                   CHD =       20059.8554     CHD_0                            

           TOTAL OUT =    56317419.4737             TOTAL OUT =       50059.8554

            IN - OUT =       3.0776E-04              IN - OUT =       1.0918E-07

 PERCENT DISCREPANCY =           0.00     PERCENT DISCREPANCY =           0.00




         TIME SUMMARY AT END OF TIME STEP    6 IN STRESS PERIOD    4
                    SECONDS     MINUTES      HOURS       DAYS        YEARS
                    -----------------------------------------------------------
   TIME STEP LENGTH 9.18555E+06 1.53093E+05  2551.5      106.31     0.29107    
 STRESS PERIOD TIME 3.15576E+07 5.25960E+05  8766.0      365.25      1.0000    
         TOTAL TIME 9.47592E+07 1.57932E+06  26322.      1096.8      3.0027    


end timestep


start timestep kper="5" kstp="1" mode="normal"


 OUTPUT CONTROL FOR STRESS PERIOD 5 IS REPEATED USING SETTINGS FROM A PREVIOUS STRESS PERIOD.


 STRESS PERIOD 5 IS TRANSIENT


 REUSING CSUBS FROM LAST STRESS PERIOD

 REUSING WELS FROM LAST STRESS PERIOD

 REUSING CHDS FROM LAST STRESS PERIOD

end timestep


start timestep kper="5" kstp="2" mode="normal"


end timestep


start timestep kper="5" kstp="3" mode="normal"


end timestep


start timestep kper="5" kstp="4" mode="normal"


end timestep


start timestep kper="5" kstp="5" mode="normal"


end timestep


start timestep kper="5" kstp="6" mode="normal"

 UBDSV1 SAVING  CSUB-CGELASTIC  ON UNIT   1021 AT TIME STEP      6, STRESS PERIOD      5
 UBDSV06 SAVING    CSUB-ELASTIC  IN MODEL CSUB_SUB03A      PACKAGE CSUB_SUB03A     CONNECTED TO MODEL CSUB_SUB03A      PACKAGE CSUB             ON UNIT   1021 AT TIME STEP      6, STRESS PERIOD      5
 UBDSV06 SAVING  CSUB-INELASTIC  IN MODEL CSUB_SUB03A      PACKAGE CSUB_SUB03A     CONNECTED TO MODEL CSUB_SUB03A      PACKAGE CSUB             ON UNIT   1021 AT TIME STEP      6, STRESS PERIOD      5
 UBDSV1 SAVING  CSUB-WATERCOMP  ON UNIT   1021 AT TIME STEP      6, STRESS PERIOD      5

 WEL PACKAGE (WEL_0) FLOW RATES   PERIOD      5   STEP        6
 -----------------------------------------------
   NUMBER   CELLID                    RATE      
 -----------------------------------------------
     1      (3,3,6)              -14000.000     
     2      (3,3,7)              -8000.0000     
     3      (3,4,6)              -5000.0000     
     4      (3,4,7)              -3000.0000     
 -----------------------------------------------




 CSUB-COMPACTION WILL BE SAVED ON UNIT 1017 AT END OF TIME STEP    6, STRESS PERIOD    5
1
  HEAD IN LAYER   1 AT END OF TIME STEP   6 IN STRESS PERIOD    5
  ---------------------------------------------------------------------------

                1               2               3               4               5               6               7               8               9              10
 ................................................................................................................................................................
   1     -1.68852        -1.68867        -1.68893        -1.68924        -1.68956        -1.68984        -1.69004        -1.69015        -1.69019        -1.69019    
   2     -1.65521        -1.65546        -1.65583        -1.65628        -1.65673        -1.65710        -1.65731        -1.65735        -1.65727        -1.65713    
   3     -1.58830        -1.58863        -1.58910        -1.58968        -1.59031        -1.59086        -1.59104        -1.59092        -1.59069        -1.59042    
   4     -1.48743        -1.48772        -1.48808        -1.48853        -1.48901        -1.48946        -1.48970        -1.48973        -1.48964        -1.48945    
   5     -1.35261        -1.35272        -1.35274        -1.35280        -1.35297        -1.35329        -1.35368        -1.35407        -1.35433        -1.35438    
   6     -1.18438        -1.18397        -1.18312        -1.18228        -1.18188        -1.18213        -1.18302        -1.18426        -1.18539        -1.18597    
   7    -0.984604       -0.982368       -0.978802       -0.975320       -0.973359       -0.973647       -0.976147       -0.980057       -0.983880       -0.986168    
   8    -0.760318       -0.752786       -0.740693       -0.728553       -0.721836       -0.722064       -0.729211       -0.741701       -0.754015       -0.761615    
   9    -0.532267       -0.510458       -0.472078       -0.429265       -0.411538       -0.411679       -0.429682       -0.472760       -0.511327       -0.533214    
  10    -0.357011       -0.304495       -0.191740         0.00000         0.00000         0.00000         0.00000       -0.192066       -0.305038       -0.357663    
1
  HEAD IN LAYER   2 AT END OF TIME STEP   6 IN STRESS PERIOD    5
  ---------------------------------------------------------------------------

                1               2               3               4               5               6               7               8               9              10
 ................................................................................................................................................................
   1     -7.23934        -7.25286        -7.26611        -7.27866        -7.28972        -7.29838        -7.30388        -7.30594        -7.30468        -7.30033    
   2     -7.18438        -7.27735        -7.30990        -7.35410        -7.40635        -7.45279        -7.45767        -7.43361        -7.40651        -7.27072    
   3     -7.12038        -7.27090        -7.32440        -7.40857        -7.55039        -7.78632        -7.73179        -7.55457        -7.45331        -7.21782    
   4     -7.04221        -7.20231        -7.24601        -7.30752        -7.39347        -7.51262        -7.49598        -7.40941        -7.35155        -7.13146    
   5     -6.93163        -7.10633        -7.12788        -7.15223        -7.17992        -7.20759        -7.21316        -7.20218        -7.18377        -7.02210    
   6     -6.78411        -7.02065        -7.02916        -7.03748        -7.04615        -7.05327        -7.05694        -7.05744        -7.05350        -6.87184    
   7     -6.61899        -6.59125        -6.61248        -6.65374        -6.69923        -6.74017        -6.77054        -6.78898        -6.79096        -6.69556    
   8     -6.45419        -5.96376        -5.90066        -5.91118        -5.93138        -5.95395        -5.97627        -6.00058        -6.08006        -6.51495    
   9     -6.30446        -5.52793        -5.40972        -5.39411        -5.39781        -5.41066        -5.43133        -5.46732        -5.59642        -6.34728    
  10     -6.17955        -6.15470        -6.13638        -6.12481        -6.12045        -6.12322        -6.13307        -6.15002        -6.17352        -6.20334    
1
  HEAD IN LAYER   3 AT END OF TIME STEP   6 IN STRESS PERIOD    5
  ---------------------------------------------------------------------------

                1               2               3               4               5               6               7               8               9              10
 ................................................................................................................................................................
   1     -18.4913        -18.6611        -18.9785        -19.3957        -19.8348        -20.1892        -20.3542        -20.3511        -20.2788        -20.2208    
   2     -18.5634        -18.8240        -19.3360        -20.0698        -20.9403        -21.7173        -21.7996        -21.4002        -20.9935        -20.7599    
   3     -18.3344        -18.7241        -19.5549        -20.9538        -23.1863        -26.7996        -25.9483        -23.2498        -21.7829        -21.1304    
   4     -17.2628        -17.5792        -18.2293        -19.2476        -20.6784        -22.5498        -22.2855        -20.9430        -20.0674        -19.6390    
   5     -15.5988        -15.7744        -16.1133        -16.5842        -17.1182        -17.5724        -17.6634        -17.4807        -17.2653        -17.1339    
   6     -13.8500        -13.9341        -14.0903        -14.2948        -14.5096        -14.6850        -14.7746        -14.7855        -14.7606        -14.7377    
   7     -12.3242        -12.3627        -12.4336        -12.5255        -12.6223        -12.7070        -12.7668        -12.8002        -12.8144        -12.8186    
   8     -11.1501        -11.1673        -11.2004        -11.2442        -11.2919        -11.3369        -11.3740        -11.4008        -11.4178        -11.4264    
   9     -10.3670        -10.3750        -10.3917        -10.4148        -10.4411        -10.4673        -10.4908        -10.5098        -10.5233        -10.5310    
  10     -9.97921        -9.98512        -9.99650        -10.0121        -10.0302        -10.0487        -10.0659        -10.0803        -10.0906        -10.0961    

 HEAD WILL BE SAVED ON UNIT 1022 AT END OF TIME STEP    6, STRESS PERIOD    5


  VOLUME BUDGET FOR ENTIRE MODEL AT END OF TIME STEP    6, STRESS PERIOD   5
  ---------------------------------------------------------------------------------------------------

     CUMULATIVE VOLUME      L**3       RATES FOR THIS TIME STEP      L**3/T          PACKAGE NAME    
     ------------------                 ------------------------                     ----------------

           IN:                                      IN:
           ---                                      ---
              STO-SS =           0.0000                STO-SS =           0.0000     STORAGE                          
      CSUB-CGELASTIC =     3608098.8177        CSUB-CGELASTIC =         708.2398     CSUB                             
        CSUB-ELASTIC =     1538474.7649          CSUB-ELASTIC =          44.7980     CSUB                             
      CSUB-INELASTIC =    32009739.1470        CSUB-INELASTIC =       25882.5664     CSUB                             
      CSUB-WATERCOMP =           0.0000        CSUB-WATERCOMP =           0.0000     CSUB                             
                 WEL =           0.0000                   WEL =           0.0000     WEL_0                            
                RCHA =    29612250.0000                  RCHA =           0.0000     RCHA_0                           
                 CHD =      881184.8329                   CHD =        3364.3958     CHD_0                            

            TOTAL IN =    67649747.5625              TOTAL IN =       30000.0000

          OUT:                                     OUT:
          ----                                     ----
              STO-SS =           0.0000                STO-SS =           0.0000     STORAGE                          
      CSUB-CGELASTIC =           0.0000        CSUB-CGELASTIC =           0.0000     CSUB                             
        CSUB-ELASTIC =           0.0000          CSUB-ELASTIC =           0.0000     CSUB                             
      CSUB-INELASTIC =           0.0000        CSUB-INELASTIC =           0.0000     CSUB                             
      CSUB-WATERCOMP =           0.0000        CSUB-WATERCOMP =           0.0000     CSUB                             
                 WEL =    43830000.0000                   WEL =       30000.0000     WEL_0                            
                RCHA =           0.0000                  RCHA =           0.0000     RCHA_0                           
                 CHD =    23819747.5621                   CHD =           0.0000     CHD_0                            

           TOTAL OUT =    67649747.5621             TOTAL OUT =       30000.0000

            IN - OUT =       4.1512E-04              IN - OUT =       2.9270E-07

 PERCENT DISCREPANCY =           0.00     PERCENT DISCREPANCY =           0.00




         TIME SUMMARY AT END OF TIME STEP    6 IN STRESS PERIOD    5
                    SECONDS     MINUTES      HOURS       DAYS        YEARS
                    -----------------------------------------------------------
   TIME STEP LENGTH 9.18555E+06 1.53093E+05  2551.5      106.31     0.29107    
 STRESS PERIOD TIME 3.15576E+07 5.25960E+05  8766.0      365.25      1.0000    
         TOTAL TIME 1.26317E+08 2.10528E+06  35088.      1462.0      4.0027    


end timestep


start timestep kper="6" kstp="1" mode="normal"


 OUTPUT CONTROL FOR STRESS PERIOD 6 IS REPEATED USING SETTINGS FROM A PREVIOUS STRESS PERIOD.


 STRESS PERIOD 6 IS TRANSIENT


 REUSING CSUBS FROM LAST STRESS PERIOD

 REUSING WELS FROM LAST STRESS PERIOD

 REUSING RCHS FROM LAST STRESS PERIOD

 REUSING CHDS FROM LAST STRESS PERIOD

end timestep


start timestep kper="6" kstp="2" mode="normal"


end timestep


start timestep kper="6" kstp="3" mode="normal"


end timestep


start timestep kper="6" kstp="4" mode="normal"


end timestep


start timestep kper="6" kstp="5" mode="normal"


end timestep


start timestep kper="6" kstp="6" mode="normal"

 UBDSV1 SAVING  CSUB-CGELASTIC  ON UNIT   1021 AT TIME STEP      6, STRESS PERIOD      6
 UBDSV06 SAVING    CSUB-ELASTIC  IN MODEL CSUB_SUB03A      PACKAGE CSUB_SUB03A     CONNECTED TO MODEL CSUB_SUB03A      PACKAGE CSUB             ON UNIT   1021 AT TIME STEP      6, STRESS PERIOD      6
 UBDSV06 SAVING  CSUB-INELASTIC  IN MODEL CSUB_SUB03A      PACKAGE CSUB_SUB03A     CONNECTED TO MODEL CSUB_SUB03A      PACKAGE CSUB             ON UNIT   1021 AT TIME STEP      6, STRESS PERIOD      6
 UBDSV1 SAVING  CSUB-WATERCOMP  ON UNIT   1021 AT TIME STEP      6, STRESS PERIOD      6

 WEL PACKAGE (WEL_0) FLOW RATES   PERIOD      6   STEP        6
 -----------------------------------------------
   NUMBER   CELLID                    RATE      
 -----------------------------------------------
     1      (3,3,6)              -14000.000     
     2      (3,3,7)              -8000.0000     
     3      (3,4,6)              -5000.0000     
     4      (3,4,7)              -3000.0000     
 -----------------------------------------------




 CSUB-COMPACTION WILL BE SAVED ON UNIT 1017 AT END OF TIME STEP    6, STRESS PERIOD    6
1
  HEAD IN LAYER   1 AT END OF TIME STEP   6 IN STRESS PERIOD    6
  ---------------------------------------------------------------------------

                1               2               3               4               5               6               7               8               9              10
 ................................................................................................................................................................
   1     -1.82788        -1.82814        -1.82860        -1.82915        -1.82972        -1.83020        -1.83054        -1.83072        -1.83077        -1.83075    
   2     -1.79165        -1.79210        -1.79278        -1.79360        -1.79443        -1.79511        -1.79547        -1.79550        -1.79532        -1.79502    
   3     -1.71881        -1.71939        -1.72024        -1.72132        -1.72249        -1.72349        -1.72380        -1.72353        -1.72306        -1.72253    
   4     -1.60900        -1.60946        -1.61013        -1.61097        -1.61188        -1.61268        -1.61306        -1.61303        -1.61279        -1.61243    
   5     -1.46272        -1.46284        -1.46298        -1.46322        -1.46361        -1.46412        -1.46465        -1.46509        -1.46538        -1.46543    
   6     -1.28124        -1.28066        -1.27972        -1.27885        -1.27846        -1.27879        -1.27979        -1.28116        -1.28245        -1.28320    
   7     -1.06700        -1.06463        -1.06079        -1.05699        -1.05479        -1.05501        -1.05762        -1.06177        -1.06586        -1.06837    
   8    -0.826455       -0.818743       -0.805897       -0.792822       -0.785529       -0.785703       -0.793318       -0.806659       -0.819687       -0.827484    
   9    -0.580091       -0.556749       -0.515193       -0.468639       -0.449348       -0.449462       -0.468977       -0.515744       -0.557451       -0.580849    
  10    -0.389481       -0.332255       -0.209271         0.00000         0.00000         0.00000         0.00000       -0.209533       -0.332691       -0.390002    
1
  HEAD IN LAYER   2 AT END OF TIME STEP   6 IN STRESS PERIOD    6
  ---------------------------------------------------------------------------

                1               2               3               4               5               6               7               8               9              10
 ................................................................................................................................................................
   1     -7.72879        -7.75053        -7.77108        -7.78984        -7.80585        -7.81802        -7.82543        -7.82767        -7.82474        -7.81677    
   2     -7.63743        -7.79320        -7.85821        -7.94557        -8.04901        -8.14118        -8.15091        -8.10331        -8.04801        -7.76485    
   3     -7.53362        -7.77120        -7.87733        -8.04425        -8.31682        -8.75568        -8.65467        -8.32464        -8.13131        -7.68155    
   4     -7.41329        -7.62304        -7.70833        -7.83000        -8.00052        -8.22646        -8.19542        -8.03202        -7.91690        -7.55714    
   5     -7.28302        -7.40443        -7.44859        -7.50134        -7.56122        -7.61563        -7.62658        -7.60475        -7.57095        -7.40417    
   6     -7.15702        -7.18953        -7.20922        -7.23014        -7.25205        -7.27002        -7.27928        -7.28048        -7.27385        -7.24703    
   7     -7.05121        -7.04966        -7.05409        -7.05886        -7.06462        -7.06976        -7.07352        -7.07576        -7.07599        -7.10821    
   8     -6.95723        -6.94357        -6.94605        -6.95998        -6.97932        -6.99994        -7.00120        -7.00224        -7.00322        -7.00247    
   9     -6.86276        -6.46369        -6.39518        -6.38117        -6.38427        -6.39707        -6.41800        -6.45195        -6.52992        -6.89531    
  10     -6.78057        -6.76410        -6.75183        -6.74405        -6.74130        -6.74349        -6.75058        -6.76257        -6.77884        -6.79907    
1
  HEAD IN LAYER   3 AT END OF TIME STEP   6 IN STRESS PERIOD    6
  ---------------------------------------------------------------------------

                1               2               3               4               5               6               7               8               9              10
 ................................................................................................................................................................
   1     -21.3092        -21.4791        -21.7966        -22.2140        -22.6533        -23.0078        -23.1728        -23.1696        -23.0973        -23.0392    
   2     -21.3372        -21.5980        -22.1104        -22.8446        -23.7155        -24.4928        -24.5751        -24.1755        -23.7684        -23.5344    
   3     -21.0240        -21.4141        -22.2453        -23.6449        -25.8781        -29.4919        -28.6405        -25.9416        -24.4740        -23.8209    
   4     -19.8361        -20.1527        -20.8032        -21.8219        -23.2532        -25.1249        -24.8606        -23.5178        -22.6417        -22.2129    
   5     -18.0353        -18.2109        -18.5498        -19.0209        -19.5550        -20.0093        -20.1003        -19.9175        -19.7019        -19.5705    
   6     -16.1433        -16.2271        -16.3833        -16.5877        -16.8024        -16.9778        -17.0673        -17.0781        -17.0533        -17.0306    
   7     -14.4823        -14.5209        -14.5920        -14.6838        -14.7805        -14.8650        -14.9245        -14.9577        -14.9717        -14.9759    
   8     -13.1926        -13.2108        -13.2445        -13.2887        -13.3366        -13.3815        -13.4183        -13.4447        -13.4610        -13.4687    
   9     -12.3234        -12.3323        -12.3497        -12.3732        -12.3997        -12.4260        -12.4493        -12.4680        -12.4809        -12.4878    
  10     -11.8892        -11.8953        -11.9070        -11.9229        -11.9411        -11.9598        -11.9770        -11.9912        -12.0013        -12.0066    

 HEAD WILL BE SAVED ON UNIT 1022 AT END OF TIME STEP    6, STRESS PERIOD    6


  VOLUME BUDGET FOR ENTIRE MODEL AT END OF TIME STEP    6, STRESS PERIOD   6
  ---------------------------------------------------------------------------------------------------

     CUMULATIVE VOLUME      L**3       RATES FOR THIS TIME STEP      L**3/T          PACKAGE NAME    
     ------------------                 ------------------------                     ----------------

           IN:                                      IN:
           ---                                      ---
              STO-SS =           0.0000                STO-SS =           0.0000     STORAGE                          
      CSUB-CGELASTIC =     3854231.5961        CSUB-CGELASTIC =         661.1842     CSUB                             
        CSUB-ELASTIC =     1548443.1263          CSUB-ELASTIC =          23.4407     CSUB                             
      CSUB-INELASTIC =    41411441.7706        CSUB-INELASTIC =       25641.8568     CSUB                             
      CSUB-WATERCOMP =           0.0000        CSUB-WATERCOMP =           0.0000     CSUB                             
                 WEL =           0.0000                   WEL =           0.0000     WEL_0                            
                RCHA =    29612250.0000                  RCHA =           0.0000     RCHA_0                           
                 CHD =     2180881.0697                   CHD =        3673.5184     CHD_0                            

            TOTAL IN =    78607247.5627              TOTAL IN =       30000.0000

          OUT:                                     OUT:
          ----                                     ----
              STO-SS =           0.0000                STO-SS =           0.0000     STORAGE                          
      CSUB-CGELASTIC =           0.0000        CSUB-CGELASTIC =           0.0000     CSUB                             
        CSUB-ELASTIC =           0.0000          CSUB-ELASTIC =           0.0000     CSUB                             
      CSUB-INELASTIC =           0.0000        CSUB-INELASTIC =           0.0000     CSUB                             
      CSUB-WATERCOMP =           0.0000        CSUB-WATERCOMP =           0.0000     CSUB                             
                 WEL =    54787500.0000                   WEL =       30000.0000     WEL_0                            
                RCHA =           0.0000                  RCHA =           0.0000     RCHA_0                           
                 CHD =    23819747.5621                   CHD =           0.0000     CHD_0                            

           TOTAL OUT =    78607247.5621             TOTAL OUT =       30000.0000

            IN - OUT =       5.3102E-04              IN - OUT =       2.8554E-07

 PERCENT DISCREPANCY =           0.00     PERCENT DISCREPANCY =           0.00




         TIME SUMMARY AT END OF TIME STEP    6 IN STRESS PERIOD    6
                    SECONDS     MINUTES      HOURS       DAYS        YEARS
                    -----------------------------------------------------------
   TIME STEP LENGTH 9.18555E+06 1.53093E+05  2551.5      106.31     0.29107    
 STRESS PERIOD TIME 3.15576E+07 5.25960E+05  8766.0      365.25      1.0000    
         TOTAL TIME 1.57874E+08 2.63124E+06  43854.      1827.2      5.0027    


end timestep


start timestep kper="7" kstp="1" mode="normal"


 OUTPUT CONTROL FOR STRESS PERIOD 7 IS REPEATED USING SETTINGS FROM A PREVIOUS STRESS PERIOD.


 STRESS PERIOD 7 IS TRANSIENT


 REUSING CSUBS FROM LAST STRESS PERIOD

 REUSING WELS FROM LAST STRESS PERIOD

 REUSING RCHS FROM LAST STRESS PERIOD

 REUSING CHDS FROM LAST STRESS PERIOD

end timestep


start timestep kper="7" kstp="2" mode="normal"


end timestep


start timestep kper="7" kstp="3" mode="normal"


end timestep


start timestep kper="7" kstp="4" mode="normal"


end timestep


start timestep kper="7" kstp="5" mode="normal"


end timestep


start timestep kper="7" kstp="6" mode="normal"

 UBDSV1 SAVING  CSUB-CGELASTIC  ON UNIT   1021 AT TIME STEP      6, STRESS PERIOD      7
 UBDSV06 SAVING    CSUB-ELASTIC  IN MODEL CSUB_SUB03A      PACKAGE CSUB_SUB03A     CONNECTED TO MODEL CSUB_SUB03A      PACKAGE CSUB             ON UNIT   1021 AT TIME STEP      6, STRESS PERIOD      7
 UBDSV06 SAVING  CSUB-INELASTIC  IN MODEL CSUB_SUB03A      PACKAGE CSUB_SUB03A     CONNECTED TO MODEL CSUB_SUB03A      PACKAGE CSUB             ON UNIT   1021 AT TIME STEP      6, STRESS PERIOD      7
 UBDSV1 SAVING  CSUB-WATERCOMP  ON UNIT   1021 AT TIME STEP      6, STRESS PERIOD      7

 WEL PACKAGE (WEL_0) FLOW RATES   PERIOD      7   STEP        6
 -----------------------------------------------
   NUMBER   CELLID                    RATE      
 -----------------------------------------------
     1      (3,3,6)              -14000.000     
     2      (3,3,7)              -8000.0000     
     3      (3,4,6)              -5000.0000     
     4      (3,4,7)              -3000.0000     
 -----------------------------------------------




 CSUB-COMPACTION WILL BE SAVED ON UNIT 1017 AT END OF TIME STEP    6, STRESS PERIOD    7
1
  HEAD IN LAYER   1 AT END OF TIME STEP   6 IN STRESS PERIOD    7
  ---------------------------------------------------------------------------

                1               2               3               4               5               6               7               8               9              10
 ................................................................................................................................................................
   1     -1.96069        -1.96106        -1.96169        -1.96245        -1.96322        -1.96387        -1.96431        -1.96453        -1.96457        -1.96453    
   2     -1.92137        -1.92200        -1.92296        -1.92410        -1.92527        -1.92620        -1.92667        -1.92668        -1.92638        -1.92592    
   3     -1.84212        -1.84293        -1.84414        -1.84566        -1.84730        -1.84869        -1.84909        -1.84869        -1.84798        -1.84720    
   4     -1.72260        -1.72324        -1.72420        -1.72540        -1.72670        -1.72782        -1.72831        -1.72823        -1.72784        -1.72731    
   5     -1.56372        -1.56389        -1.56417        -1.56461        -1.56522        -1.56594        -1.56660        -1.56711        -1.56741        -1.56745    
   6     -1.36739        -1.36673        -1.36575        -1.36490        -1.36459        -1.36505        -1.36620        -1.36774        -1.36919        -1.37008    
   7     -1.13683        -1.13420        -1.13008        -1.12604        -1.12374        -1.12402        -1.12686        -1.13136        -1.13582        -1.13864    
   8    -0.879430       -0.871155       -0.857478       -0.843567       -0.835800       -0.835971       -0.844068       -0.858269       -0.872175       -0.880599    
   9    -0.617049       -0.592500       -0.548518       -0.499132       -0.478649       -0.478740       -0.499405       -0.548981       -0.593121       -0.617777    
  10    -0.413813       -0.353048       -0.222395         0.00000         0.00000         0.00000         0.00000       -0.222628       -0.353444       -0.414295    
1
  HEAD IN LAYER   2 AT END OF TIME STEP   6 IN STRESS PERIOD    7
  ---------------------------------------------------------------------------

                1               2               3               4               5               6               7               8               9              10
 ................................................................................................................................................................
   1     -8.31428        -8.34242        -8.36820        -8.39101        -8.40985        -8.42358        -8.43124        -8.43237        -8.42695        -8.41509    
   2     -8.19275        -8.42172        -8.51609        -8.64078        -8.78842        -8.92005        -8.93397        -8.86600        -8.78315        -8.34189    
   3     -8.05406        -8.38149        -8.53486        -8.77356        -9.15933        -9.77010        -9.63050        -9.17030        -8.89311        -8.23075    
   4     -7.89419        -8.15873        -8.28091        -8.45478        -8.69856        -9.01561        -8.97269        -8.74354        -8.57611        -8.07162    
   5     -7.71962        -7.82780        -7.89084        -7.96824        -8.05603        -8.13361        -8.14924        -8.11800        -8.07069        -7.87717    
   6     -7.54398        -7.49485        -7.52165        -7.55345        -7.58682        -7.61419        -7.62828        -7.63010        -7.62340        -7.67181    
   7     -7.38166        -7.24196        -7.24830        -7.25835        -7.26968        -7.27982        -7.28727        -7.29174        -7.29598        -7.47759    
   8     -7.24375        -7.08999        -7.08941        -7.09157        -7.09445        -7.09769        -7.10173        -7.10538        -7.11102        -7.30978    
   9     -7.13608        -7.02466        -7.02236        -7.02133        -7.02157        -7.02263        -7.02439        -7.02711        -7.03095        -7.17594    
  10     -7.05779        -7.04326        -7.03304        -7.02675        -7.02458        -7.02624        -7.03189        -7.04190        -7.05627        -7.07554    
1
  HEAD IN LAYER   3 AT END OF TIME STEP   6 IN STRESS PERIOD    7
  ---------------------------------------------------------------------------

                1               2               3               4               5               6               7               8               9              10
 ................................................................................................................................................................
   1     -23.8436        -24.0137        -24.3316        -24.7493        -25.1890        -25.5438        -25.7090        -25.7058        -25.6334        -25.5753    
   2     -23.8448        -24.1060        -24.6188        -25.3537        -26.2252        -27.0030        -27.0855        -26.6858        -26.2785        -26.0441    
   3     -23.4800        -23.8705        -24.7024        -26.1029        -28.3370        -31.9516        -31.1004        -28.4011        -26.9330        -26.2794    
   4     -22.2206        -22.5376        -23.1886        -24.2080        -25.6401        -27.5123        -27.2483        -25.9052        -25.0288        -24.5997    
   5     -20.3357        -20.5114        -20.8506        -21.3221        -21.8567        -22.3113        -22.4025        -22.2197        -22.0041        -21.8726    
   6     -18.3559        -18.4396        -18.5958        -18.8004        -19.0154        -19.1910        -19.2806        -19.2916        -19.2668        -19.2443    
   7     -16.6127        -16.6511        -16.7221        -16.8140        -16.9108        -16.9953        -17.0550        -17.0882        -17.1024        -17.1068    
   8     -15.2548        -15.2729        -15.3066        -15.3508        -15.3987        -15.4436        -15.4803        -15.5066        -15.5229        -15.5308    
   9     -14.3373        -14.3467        -14.3645        -14.3882        -14.4148        -14.4409        -14.4641        -14.4824        -14.4949        -14.5013    
  10     -13.8767        -13.8830        -13.8949        -13.9109        -13.9292        -13.9478        -13.9648        -13.9788        -13.9887        -13.9939    

 HEAD WILL BE SAVED ON UNIT 1022 AT END OF TIME STEP    6, STRESS PERIOD    7


  VOLUME BUDGET FOR ENTIRE MODEL AT END OF TIME STEP    6, STRESS PERIOD   7
  ---------------------------------------------------------------------------------------------------

     CUMULATIVE VOLUME      L**3       RATES FOR THIS TIME STEP      L**3/T          PACKAGE NAME    
     ------------------                 ------------------------                     ----------------

           IN:                                      IN:
           ---                                      ---
              STO-SS =           0.0000                STO-SS =           0.0000     STORAGE                          
      CSUB-CGELASTIC =     4089110.6072        CSUB-CGELASTIC =         631.4871     CSUB                             
        CSUB-ELASTIC =     1552211.2667          CSUB-ELASTIC =           4.3058     CSUB                             
      CSUB-INELASTIC =    50736554.0804        CSUB-INELASTIC =       25459.5349     CSUB                             
      CSUB-WATERCOMP =           0.0000        CSUB-WATERCOMP =           0.0000     CSUB                             
                 WEL =           0.0000                   WEL =           0.0000     WEL_0                            
                RCHA =    29612250.0000                  RCHA =           0.0000     RCHA_0                           
                 CHD =     3574621.6084                   CHD =        3904.6722     CHD_0                            

            TOTAL IN =    89564747.5628              TOTAL IN =       30000.0000

          OUT:                                     OUT:
          ----                                     ----
              STO-SS =           0.0000                STO-SS =           0.0000     STORAGE                          
      CSUB-CGELASTIC =           0.0000        CSUB-CGELASTIC =           0.0000     CSUB                             
        CSUB-ELASTIC =           0.0000          CSUB-ELASTIC =           0.0000     CSUB                             
      CSUB-INELASTIC =           0.0000        CSUB-INELASTIC =           0.0000     CSUB                             
      CSUB-WATERCOMP =           0.0000        CSUB-WATERCOMP =           0.0000     CSUB                             
                 WEL =    65745000.0000                   WEL =       30000.0000     WEL_0                            
                RCHA =           0.0000                  RCHA =           0.0000     RCHA_0                           
                 CHD =    23819747.5621                   CHD =           0.0000     CHD_0                            

           TOTAL OUT =    89564747.5621             TOTAL OUT =       30000.0000

            IN - OUT =       6.7571E-04              IN - OUT =       2.7954E-07

 PERCENT DISCREPANCY =           0.00     PERCENT DISCREPANCY =           0.00




         TIME SUMMARY AT END OF TIME STEP    6 IN STRESS PERIOD    7
                    SECONDS     MINUTES      HOURS       DAYS        YEARS
                    -----------------------------------------------------------
   TIME STEP LENGTH 9.18555E+06 1.53093E+05  2551.5      106.31     0.29107    
 STRESS PERIOD TIME 3.15576E+07 5.25960E+05  8766.0      365.25      1.0000    
         TOTAL TIME 1.89432E+08 3.15720E+06  52620.      2192.5      6.0027    


end timestep


start timestep kper="8" kstp="1" mode="normal"


 OUTPUT CONTROL FOR STRESS PERIOD 8 IS REPEATED USING SETTINGS FROM A PREVIOUS STRESS PERIOD.


 STRESS PERIOD 8 IS TRANSIENT


 REUSING CSUBS FROM LAST STRESS PERIOD

 REUSING WELS FROM LAST STRESS PERIOD

 REUSING CHDS FROM LAST STRESS PERIOD

end timestep


start timestep kper="8" kstp="2" mode="normal"


end timestep


start timestep kper="8" kstp="3" mode="normal"


end timestep


start timestep kper="8" kstp="4" mode="normal"


end timestep


start timestep kper="8" kstp="5" mode="normal"


end timestep


start timestep kper="8" kstp="6" mode="normal"

 UBDSV1 SAVING  CSUB-CGELASTIC  ON UNIT   1021 AT TIME STEP      6, STRESS PERIOD      8
 UBDSV06 SAVING    CSUB-ELASTIC  IN MODEL CSUB_SUB03A      PACKAGE CSUB_SUB03A     CONNECTED TO MODEL CSUB_SUB03A      PACKAGE CSUB             ON UNIT   1021 AT TIME STEP      6, STRESS PERIOD      8
 UBDSV06 SAVING  CSUB-INELASTIC  IN MODEL CSUB_SUB03A      PACKAGE CSUB_SUB03A     CONNECTED TO MODEL CSUB_SUB03A      PACKAGE CSUB             ON UNIT   1021 AT TIME STEP      6, STRESS PERIOD      8
 UBDSV1 SAVING  CSUB-WATERCOMP  ON UNIT   1021 AT TIME STEP      6, STRESS PERIOD      8

 WEL PACKAGE (WEL_0) FLOW RATES   PERIOD      8   STEP        6
 -----------------------------------------------
   NUMBER   CELLID                    RATE      
 -----------------------------------------------
     1      (3,3,6)              -14000.000     
     2      (3,3,7)              -8000.0000     
     3      (3,4,6)              -5000.0000     
     4      (3,4,7)              -3000.0000     
 -----------------------------------------------




 CSUB-COMPACTION WILL BE SAVED ON UNIT 1017 AT END OF TIME STEP    6, STRESS PERIOD    8
1
  HEAD IN LAYER   1 AT END OF TIME STEP   6 IN STRESS PERIOD    8
  ---------------------------------------------------------------------------

                1               2               3               4               5               6               7               8               9              10
 ................................................................................................................................................................
   1      18.4489         18.0181         17.2011         16.6740         16.4003         16.3658         16.5736         17.0434         17.8176         18.2254    
   2      17.3166         16.7042         16.1782         15.7945         15.5752         15.5290         15.6589         15.9623         16.4247         17.0001    
   3      15.7713         15.1747         14.7150         14.3871         14.1893         14.1214         14.1845         14.3796         14.7137         15.2140    
   4      13.7410         13.2217         12.8491         12.5867         12.4177         12.3326         12.3232         12.3759         12.4677         12.5566    
   5      10.9056         10.7949         10.6567         10.5293         10.4304         10.3667         10.3375         10.3363         10.3514         10.3669    
   6      8.61418         8.57805         8.52110         8.45951         8.40554         8.36630         8.34377         8.33552         8.33598         8.33861    
   7      6.55515         6.53139         6.49130         6.44681         6.40984         6.38753         6.38164         6.38861         6.40034         6.40865    
   8      4.66739         4.62541         4.55443         4.47947         4.43110         4.41896         4.44403         4.49873         4.55465         4.58859    
   9      3.01324         2.90073         2.69861         2.47081         2.37252         2.36664         2.45327         2.66953         2.86274         2.97045    
  10      1.86572         1.59144         1.00209         0.00000         0.00000         0.00000         0.00000        0.989398         1.57019         1.84012    
1
  HEAD IN LAYER   2 AT END OF TIME STEP   6 IN STRESS PERIOD    8
  ---------------------------------------------------------------------------

                1               2               3               4               5               6               7               8               9              10
 ................................................................................................................................................................
   1     -5.58356        -5.58393        -5.59378        -5.60967        -5.62873        -5.64879        -5.66872        -5.68877        -5.71056        -5.73687    
   2     -5.62656        -4.91920        -5.29374        -5.82630        -6.35521        -6.75358        -6.73361        -6.39711        -5.98736        -5.86667    
   3     -5.70443        -5.45241        -6.02781        -6.88704        -8.08720        -9.69133        -9.33243        -8.02501        -7.02957        -6.00346    
   4     -5.80330        -5.71402        -6.18467        -6.82369        -7.61919        -8.51054        -8.41730        -7.76727        -7.15816        -6.12285    
   5     -5.91601        -5.86694        -6.08912        -6.38840        -6.70603        -6.96467        -7.02565        -6.93092        -6.74477        -6.21632    
   6     -6.03418        -5.92050        -6.00726        -6.13965        -6.27480        -6.38285        -6.43931        -6.44789        -6.41803        -6.29509    
   7     -6.15765        -6.02878        -6.06418        -6.13141        -6.19869        -6.25255        -6.28572        -6.29965        -6.30945        -6.37041    
   8     -6.28612        -6.25942        -6.30578        -6.36504        -6.41346        -6.44228        -6.44839        -6.43491        -6.42021        -6.44780    
   9     -6.41630        -6.60596        -6.73026        -6.84700        -6.90828        -6.92429        -6.89366        -6.80369        -6.70046        -6.52648    
  10     -6.54186        -6.57101        -6.59726        -6.61892        -6.63304        -6.63965        -6.63871        -6.63019        -6.61698        -6.60073    
1
  HEAD IN LAYER   3 AT END OF TIME STEP   6 IN STRESS PERIOD    8
  ---------------------------------------------------------------------------

                1               2               3               4               5               6               7               8               9              10
 ................................................................................................................................................................
   1     -26.0265        -26.1971        -26.5162        -26.9357        -27.3773        -27.7338        -27.9002        -27.8977        -27.8256        -27.7676    
   2     -26.0158        -26.2768        -26.7919        -27.5303        -28.4057        -29.1864        -29.2702        -28.8702        -28.4622        -28.2278    
   3     -25.6301        -26.0214        -26.8568        -28.2625        -30.5024        -34.1216        -33.2716        -30.5707        -29.1001        -28.4450    
   4     -24.3395        -24.6575        -25.3118        -26.3358        -27.7729        -29.6492        -29.3865        -28.0427        -27.1645        -26.7337    
   5     -22.4157        -22.5922        -22.9336        -23.4082        -23.9460        -24.4033        -24.4959        -24.3133        -24.0971        -23.9647    
   6     -20.3941        -20.4785        -20.6360        -20.8425        -21.0594        -21.2367        -21.3275        -21.3390        -21.3142        -21.2914    
   7     -18.6119        -18.6508        -18.7228        -18.8159        -18.9139        -18.9995        -19.0600        -19.0937        -19.1080        -19.1122    
   8     -17.2221        -17.2409        -17.2755        -17.3207        -17.3695        -17.4151        -17.4522        -17.4787        -17.4948        -17.5023    
   9     -16.2823        -16.2926        -16.3115        -16.3363        -16.3637        -16.3904        -16.4136        -16.4315        -16.4435        -16.4493    
  10     -15.8098        -15.8166        -15.8291        -15.8458        -15.8647        -15.8836        -15.9007        -15.9146        -15.9242        -15.9291    

 HEAD WILL BE SAVED ON UNIT 1022 AT END OF TIME STEP    6, STRESS PERIOD    8


  VOLUME BUDGET FOR ENTIRE MODEL AT END OF TIME STEP    6, STRESS PERIOD   8
  ---------------------------------------------------------------------------------------------------

     CUMULATIVE VOLUME      L**3       RATES FOR THIS TIME STEP      L**3/T          PACKAGE NAME    
     ------------------                 ------------------------                     ----------------

           IN:                                      IN:
           ---                                      ---
              STO-SS =           0.0000                STO-SS =           0.0000     STORAGE                          
      CSUB-CGELASTIC =     4299806.8137        CSUB-CGELASTIC =         562.8048     CSUB                             
        CSUB-ELASTIC =     1560824.5629          CSUB-ELASTIC =          69.6459     CSUB                             
      CSUB-INELASTIC =    58183141.8088        CSUB-INELASTIC =       19837.7823     CSUB                             
      CSUB-WATERCOMP =           0.0000        CSUB-WATERCOMP =           0.0000     CSUB                             
                 WEL =           0.0000                   WEL =           0.0000     WEL_0                            
                RCHA =    39474000.0000                  RCHA =       27000.0000     RCHA_0                           
                 CHD =     3632089.1605                   CHD =         159.1819     CHD_0                            

            TOTAL IN =   107149862.3459              TOTAL IN =       47629.4149

          OUT:                                     OUT:
          ----                                     ----
              STO-SS =           0.0000                STO-SS =           0.0000     STORAGE                          
      CSUB-CGELASTIC =      548112.8185        CSUB-CGELASTIC =           0.1672     CSUB                             
        CSUB-ELASTIC =      244061.3137          CSUB-ELASTIC =       5.9011E-02     CSUB                             
      CSUB-INELASTIC =           0.0000        CSUB-INELASTIC =           0.0000     CSUB                             
      CSUB-WATERCOMP =           0.0000        CSUB-WATERCOMP =           0.0000     CSUB                             
                 WEL =    76702500.0000                   WEL =       30000.0000     WEL_0                            
                RCHA =           0.0000                  RCHA =           0.0000     RCHA_0                           
                 CHD =    29655188.2128                   CHD =       17629.1887     CHD_0                            

           TOTAL OUT =   107149862.3450             TOTAL OUT =       47629.4149

            IN - OUT =       8.1009E-04              IN - OUT =       2.1665E-07

 PERCENT DISCREPANCY =           0.00     PERCENT DISCREPANCY =           0.00




         TIME SUMMARY AT END OF TIME STEP    6 IN STRESS PERIOD    8
                    SECONDS     MINUTES      HOURS       DAYS        YEARS
                    -----------------------------------------------------------
   TIME STEP LENGTH 9.18555E+06 1.53093E+05  2551.5      106.31     0.29107    
 STRESS PERIOD TIME 3.15576E+07 5.25960E+05  8766.0      365.25      1.0000    
         TOTAL TIME 2.20990E+08 3.68316E+06  61386.      2557.8      7.0027    


end timestep


start timestep kper="9" kstp="1" mode="normal"


 OUTPUT CONTROL FOR STRESS PERIOD 9 IS REPEATED USING SETTINGS FROM A PREVIOUS STRESS PERIOD.


 STRESS PERIOD 9 IS TRANSIENT


 REUSING CSUBS FROM LAST STRESS PERIOD

 REUSING WELS FROM LAST STRESS PERIOD

 REUSING RCHS FROM LAST STRESS PERIOD

 REUSING CHDS FROM LAST STRESS PERIOD

end timestep


start timestep kper="9" kstp="2" mode="normal"


end timestep


start timestep kper="9" kstp="3" mode="normal"


end timestep


start timestep kper="9" kstp="4" mode="normal"


end timestep


start timestep kper="9" kstp="5" mode="normal"


end timestep


start timestep kper="9" kstp="6" mode="normal"

 UBDSV1 SAVING  CSUB-CGELASTIC  ON UNIT   1021 AT TIME STEP      6, STRESS PERIOD      9
 UBDSV06 SAVING    CSUB-ELASTIC  IN MODEL CSUB_SUB03A      PACKAGE CSUB_SUB03A     CONNECTED TO MODEL CSUB_SUB03A      PACKAGE CSUB             ON UNIT   1021 AT TIME STEP      6, STRESS PERIOD      9
 UBDSV06 SAVING  CSUB-INELASTIC  IN MODEL CSUB_SUB03A      PACKAGE CSUB_SUB03A     CONNECTED TO MODEL CSUB_SUB03A      PACKAGE CSUB             ON UNIT   1021 AT TIME STEP      6, STRESS PERIOD      9
 UBDSV1 SAVING  CSUB-WATERCOMP  ON UNIT   1021 AT TIME STEP      6, STRESS PERIOD      9

 WEL PACKAGE (WEL_0) FLOW RATES   PERIOD      9   STEP        6
 -----------------------------------------------
   NUMBER   CELLID                    RATE      
 -----------------------------------------------
     1      (3,3,6)              -14000.000     
     2      (3,3,7)              -8000.0000     
     3      (3,4,6)              -5000.0000     
     4      (3,4,7)              -3000.0000     
 -----------------------------------------------




 CSUB-COMPACTION WILL BE SAVED ON UNIT 1017 AT END OF TIME STEP    6, STRESS PERIOD    9
1
  HEAD IN LAYER   1 AT END OF TIME STEP   6 IN STRESS PERIOD    9
  ---------------------------------------------------------------------------

                1               2               3               4               5               6               7               8               9              10
 ................................................................................................................................................................
   1      18.2370         17.8062         16.9892         16.4622         16.1885         16.1542         16.3621         16.8320         17.6062         18.0140    
   2      17.1087         16.4963         15.9703         15.5867         15.3676         15.3216         15.4516         15.7550         16.2174         16.7930    
   3      15.5719         14.9752         14.5156         14.1879         13.9906         13.9235         13.9867         14.1813         14.5151         15.0155    
   4      13.5544         13.0348         12.6623         12.4001         12.2315         12.1470         12.1377         12.1901         12.2818         12.3708    
   5      10.7360         10.6251         10.4868         10.3595         10.2608         10.1972         10.1681         10.1670         10.1822         10.1979    
   6      8.46597         8.42969         8.37273         8.31123         8.25738         8.21823         8.19576         8.18755         8.18810         8.19092    
   7      6.43261         6.40890         6.36912         6.32504         6.28839         6.26617         6.26014         6.26684         6.27834         6.28664    
   8      4.57391         4.53270         4.46319         4.38980         4.34240         4.33038         4.35473         4.40804         4.46259         4.49572    
   9      2.94919         2.83936         2.64197         2.41944         2.32342         2.31763         2.40216         2.61332         2.80190         2.90692    
  10      1.82360         1.55555        0.979520         0.00000         0.00000         0.00000         0.00000        0.967024         1.53462         1.79838    
1
  HEAD IN LAYER   2 AT END OF TIME STEP   6 IN STRESS PERIOD    9
  ---------------------------------------------------------------------------

                1               2               3               4               5               6               7               8               9              10
 ................................................................................................................................................................
   1     -6.54010        -6.54445        -6.55723        -6.57503        -6.59499        -6.61496        -6.63377        -6.65169        -6.67032        -6.69242    
   2     -6.56306        -5.99817        -6.39017        -6.92414        -7.45208        -7.83787        -7.82087        -7.49371        -7.06732        -6.80119    
   3     -6.61578        -6.52359        -7.11920        -7.97703        -9.12414        -9.90293        -9.72381        -9.07288        -8.09941        -6.91174    
   4     -6.68391        -6.76931        -7.26240        -7.90161        -8.66712        -9.07553        -9.02695        -8.76332        -8.21004        -6.99920    
   5     -6.75979        -6.90235        -7.14933        -7.45062        -7.76794        -8.01953        -8.08129        -7.99109        -7.78088        -7.05451    
   6     -6.83446        -6.93275        -7.04697        -7.18143        -7.31700        -7.42520        -7.48159        -7.48843        -7.43049        -7.08826    
   7     -6.90707        -7.01373        -7.07850        -7.14683        -7.21357        -7.26654        -7.28912        -7.29423        -7.29108        -7.11097    
   8     -6.97646        -7.09684        -7.09985        -7.10492        -7.11064        -7.11607        -7.12033        -7.12262        -7.12595        -7.12727    
   9     -7.03872        -7.06367        -7.07430        -7.08842        -7.09700        -7.10013        -7.09751        -7.08775        -7.08061        -7.13621    
  10     -7.08751        -7.09812        -7.10985        -7.12116        -7.12923        -7.13409        -7.13574        -7.13418        -7.13230        -7.13182    
1
  HEAD IN LAYER   3 AT END OF TIME STEP   6 IN STRESS PERIOD    9
  ---------------------------------------------------------------------------

                1               2               3               4               5               6               7               8               9              10
 ................................................................................................................................................................
   1     -28.0732        -28.2440        -28.5634        -28.9834        -29.4254        -29.7823        -29.9492        -29.9470        -29.8751        -29.8172    
   2     -28.0559        -28.3173        -28.8327        -29.5715        -30.4472        -31.2282        -31.3124        -30.9129        -30.5052        -30.2707    
   3     -27.6570        -28.0487        -28.8844        -30.2903        -32.5299        -36.1483        -35.2989        -32.5994        -31.1296        -30.4745    
   4     -26.3481        -26.6665        -27.3212        -28.3455        -29.7826        -31.6583        -31.3961        -30.0532        -29.1756        -28.7448    
   5     -24.4023        -24.5793        -24.9213        -25.3962        -25.9344        -26.3920        -26.4849        -26.3026        -26.0863        -25.9538    
   6     -22.3571        -22.4420        -22.6000        -22.8070        -23.0243        -23.2019        -23.2929        -23.3045        -23.2796        -23.2564    
   7     -20.5516        -20.5910        -20.6635        -20.7569        -20.8552        -20.9411        -21.0017        -21.0354        -21.0495        -21.0534    
   8     -19.1410        -19.1600        -19.1946        -19.2398        -19.2886        -19.3343        -19.3716        -19.3982        -19.4145        -19.4220    
   9     -18.1852        -18.1952        -18.2136        -18.2380        -18.2652        -18.2920        -18.3154        -18.3339        -18.3463        -18.3527    
  10     -17.7046        -17.7112        -17.7235        -17.7401        -17.7589        -17.7779        -17.7952        -17.8094        -17.8193        -17.8244    

 HEAD WILL BE SAVED ON UNIT 1022 AT END OF TIME STEP    6, STRESS PERIOD    9


  VOLUME BUDGET FOR ENTIRE MODEL AT END OF TIME STEP    6, STRESS PERIOD   9
  ---------------------------------------------------------------------------------------------------

     CUMULATIVE VOLUME      L**3       RATES FOR THIS TIME STEP      L**3/T          PACKAGE NAME    
     ------------------                 ------------------------                     ----------------

           IN:                                      IN:
           ---                                      ---
              STO-SS =           0.0000                STO-SS =           0.0000     STORAGE                          
      CSUB-CGELASTIC =     4508328.1406        CSUB-CGELASTIC =         561.9468     CSUB                             
        CSUB-ELASTIC =     1587968.0004          CSUB-ELASTIC =          59.9134     CSUB                             
      CSUB-INELASTIC =    65335740.5163        CSUB-INELASTIC =       19455.8494     CSUB                             
      CSUB-WATERCOMP =           0.0000        CSUB-WATERCOMP =           0.0000     CSUB                             
                 WEL =           0.0000                   WEL =           0.0000     WEL_0                            
                RCHA =    49335750.0000                  RCHA =       27000.0000     RCHA_0                           
                 CHD =     3693556.6946                   CHD =         171.1214     CHD_0                            

            TOTAL IN =   124461343.3518              TOTAL IN =       47248.8309

          OUT:                                     OUT:
          ----                                     ----
              STO-SS =           0.0000                STO-SS =           0.0000     STORAGE                          
      CSUB-CGELASTIC =      548112.8185        CSUB-CGELASTIC =           0.0000     CSUB                             
        CSUB-ELASTIC =      244061.3137          CSUB-ELASTIC =           0.0000     CSUB                             
      CSUB-INELASTIC =           0.0000        CSUB-INELASTIC =           0.0000     CSUB                             
      CSUB-WATERCOMP =           0.0000        CSUB-WATERCOMP =           0.0000     CSUB                             
                 WEL =    87660000.0000                   WEL =       30000.0000     WEL_0                            
                RCHA =           0.0000                  RCHA =           0.0000     RCHA_0                           
                 CHD =    36009169.2187                   CHD =       17248.8309     CHD_0                            

           TOTAL OUT =   124461343.3509             TOTAL OUT =       47248.8309

            IN - OUT =       9.1955E-04              IN - OUT =       1.5881E-07

 PERCENT DISCREPANCY =           0.00     PERCENT DISCREPANCY =           0.00




         TIME SUMMARY AT END OF TIME STEP    6 IN STRESS PERIOD    9
                    SECONDS     MINUTES      HOURS       DAYS        YEARS
                    -----------------------------------------------------------
   TIME STEP LENGTH 9.18555E+06 1.53093E+05  2551.5      106.31     0.29107    
 STRESS PERIOD TIME 3.15576E+07 5.25960E+05  8766.0      365.25      1.0000    
         TOTAL TIME 2.52547E+08 4.20912E+06  70152.      2923.0      8.0027    


end timestep


start timestep kper="10" kstp="1" mode="normal"


 OUTPUT CONTROL FOR STRESS PERIOD 10 IS REPEATED USING SETTINGS FROM A PREVIOUS STRESS PERIOD.


 STRESS PERIOD 10 IS TRANSIENT


 REUSING CSUBS FROM LAST STRESS PERIOD

 REUSING WELS FROM LAST STRESS PERIOD

 REUSING RCHS FROM LAST STRESS PERIOD

 REUSING CHDS FROM LAST STRESS PERIOD

end timestep


start timestep kper="10" kstp="2" mode="normal"


end timestep


start timestep kper="10" kstp="3" mode="normal"


end timestep


start timestep kper="10" kstp="4" mode="normal"


end timestep


start timestep kper="10" kstp="5" mode="normal"


end timestep


start timestep kper="10" kstp="6" mode="normal"

 UBDSV1 SAVING  CSUB-CGELASTIC  ON UNIT   1021 AT TIME STEP      6, STRESS PERIOD     10
 UBDSV06 SAVING    CSUB-ELASTIC  IN MODEL CSUB_SUB03A      PACKAGE CSUB_SUB03A     CONNECTED TO MODEL CSUB_SUB03A      PACKAGE CSUB             ON UNIT   1021 AT TIME STEP      6, STRESS PERIOD     10
 UBDSV06 SAVING  CSUB-INELASTIC  IN MODEL CSUB_SUB03A      PACKAGE CSUB_SUB03A     CONNECTED TO MODEL CSUB_SUB03A      PACKAGE CSUB             ON UNIT   1021 AT TIME STEP      6, STRESS PERIOD     10
 UBDSV1 SAVING  CSUB-WATERCOMP  ON UNIT   1021 AT TIME STEP      6, STRESS PERIOD     10

 WEL PACKAGE (WEL_0) FLOW RATES   PERIOD     10   STEP        6
 -----------------------------------------------
   NUMBER   CELLID                    RATE      
 -----------------------------------------------
     1      (3,3,6)              -14000.000     
     2      (3,3,7)              -8000.0000     
     3      (3,4,6)              -5000.0000     
     4      (3,4,7)              -3000.0000     
 -----------------------------------------------




 CSUB-COMPACTION WILL BE SAVED ON UNIT 1017 AT END OF TIME STEP    6, STRESS PERIOD   10
1
  HEAD IN LAYER   1 AT END OF TIME STEP   6 IN STRESS PERIOD   10
  ---------------------------------------------------------------------------

                1               2               3               4               5               6               7               8               9              10
 ................................................................................................................................................................
   1      18.0900         17.6592         16.8424         16.3156         16.0423         16.0082         16.2164         16.6865         17.4610         17.8689    
   2      16.9655         16.3529         15.8271         15.4439         15.2253         15.1797         15.3101         15.6138         16.0763         16.6522    
   3      15.4364         14.8398         14.3806         14.0539         13.8580         13.7916         13.8552         14.0499         14.3834         14.8837    
   4      13.4303         12.9108         12.5389         12.2780         12.1107         12.0272         12.0184         12.0709         12.1624         12.2511    
   5      10.6263         10.5155         10.3779         10.2517         10.1541         10.0914         10.0629         10.0619         10.0770         10.0924    
   6      8.37327         8.33726         8.28093         8.22024         8.16721         8.12872         8.10664         8.09854         8.09895         8.10152    
   7      6.35856         6.33533         6.29625         6.25293         6.21692         6.19513         6.18922         6.19577         6.20695         6.21485    
   8      4.51893         4.47851         4.41008         4.33778         4.29109         4.27927         4.30330         4.35584         4.40954         4.44203    
   9      2.91197         2.80374         2.60906         2.38954         2.29483         2.28913         2.37253         2.58087         2.76689         2.87041    
  10      1.79932         1.53486        0.966505         0.00000         0.00000         0.00000         0.00000        0.954211         1.51426         1.77451    
1
  HEAD IN LAYER   2 AT END OF TIME STEP   6 IN STRESS PERIOD   10
  ---------------------------------------------------------------------------

                1               2               3               4               5               6               7               8               9              10
 ................................................................................................................................................................
   1     -7.31531        -7.32559        -7.34259        -7.36290        -7.38367        -7.40276        -7.41902        -7.43268        -7.44532        -7.45968    
   2     -7.30769        -7.00188        -7.42915        -7.96141        -8.47767        -8.86264        -8.84464        -8.51627        -8.06371        -7.53049    
   3     -7.32132        -7.52133        -8.14489        -8.79303        -9.27243        -10.1326        -9.92378        -9.27202        -8.91048        -7.59422    
   4     -7.34101        -7.74815        -8.25793        -8.49158        -8.80558        -9.24554        -9.18874        -8.86985        -8.63283        -7.62566    
   5     -7.35810        -7.82906        -7.90694        -8.00401        -8.11761        -8.21997        -8.24214        -8.20199        -8.13251        -7.61605    
   6     -7.36257        -7.51901        -7.55594        -7.59953        -7.64510        -7.68297        -7.70298        -7.70582        -7.69349        -7.57480    
   7     -7.35338        -7.30130        -7.31453        -7.33247        -7.35181        -7.36865        -7.38050        -7.38674        -7.39042        -7.51108    
   8     -7.32874        -7.20602        -7.21444        -7.22674        -7.23812        -7.24667        -7.25122        -7.25146        -7.25479        -7.44691    
   9     -7.32734        -7.22544        -7.24737        -7.27574        -7.29135        -7.29623        -7.28996        -7.26903        -7.25407        -7.40848    
  10     -7.34475        -7.35204        -7.36151        -7.37145        -7.37894        -7.38396        -7.38646        -7.38641        -7.38665        -7.38885    
1
  HEAD IN LAYER   3 AT END OF TIME STEP   6 IN STRESS PERIOD   10
  ---------------------------------------------------------------------------

                1               2               3               4               5               6               7               8               9              10
 ................................................................................................................................................................
   1     -30.0279        -30.1987        -30.5180        -30.9378        -31.3796        -31.7362        -31.9028        -31.9005        -31.8285        -31.7705    
   2     -30.0059        -30.2677        -30.7830        -31.5214        -32.3964        -33.1769        -33.2608        -32.8611        -32.4531        -32.2183    
   3     -29.5972        -29.9891        -30.8242        -32.2284        -34.4659        -38.0831        -37.2332        -34.5339        -33.0651        -32.4102    
   4     -28.2742        -28.5927        -29.2465        -30.2688        -31.7036        -33.5779        -33.3150        -31.9721        -31.0952        -30.6651    
   5     -26.3111        -26.4882        -26.8293        -27.3027        -27.8391        -28.2952        -28.3873        -28.2049        -27.9891        -27.8570    
   6     -24.2465        -24.3312        -24.4885        -24.6944        -24.9106        -25.0872        -25.1776        -25.1889        -25.1643        -25.1415    
   7     -22.4215        -22.4604        -22.5321        -22.6248        -22.7224        -22.8077        -22.8679        -22.9015        -22.9159        -22.9203    
   8     -20.9937        -21.0121        -21.0463        -21.0910        -21.1395        -21.1849        -21.2220        -21.2486        -21.2651        -21.2730    
   9     -20.0257        -20.0353        -20.0535        -20.0777        -20.1048        -20.1313        -20.1548        -20.1732        -20.1858        -20.1923    
  10     -19.5389        -19.5454        -19.5576        -19.5741        -19.5928        -19.6117        -19.6290        -19.6431        -19.6530        -19.6582    

 HEAD WILL BE SAVED ON UNIT 1022 AT END OF TIME STEP    6, STRESS PERIOD   10


  VOLUME BUDGET FOR ENTIRE MODEL AT END OF TIME STEP    6, STRESS PERIOD  10
  ---------------------------------------------------------------------------------------------------

     CUMULATIVE VOLUME      L**3       RATES FOR THIS TIME STEP      L**3/T          PACKAGE NAME    
     ------------------                 ------------------------                     ----------------

           IN:                                      IN:
           ---                                      ---
              STO-SS =           0.0000                STO-SS =           0.0000     STORAGE                          
      CSUB-CGELASTIC =     4706210.2996        CSUB-CGELASTIC =         529.8806     CSUB                             
        CSUB-ELASTIC =     1600576.7666          CSUB-ELASTIC =          25.9143     CSUB                             
      CSUB-INELASTIC =    72406010.7668        CSUB-INELASTIC =       19295.9725     CSUB                             
      CSUB-WATERCOMP =           0.0000        CSUB-WATERCOMP =           0.0000     CSUB                             
                 WEL =           0.0000                   WEL =           0.0000     WEL_0                            
                RCHA =    59197500.0000                  RCHA =       27000.0000     RCHA_0                           
                 CHD =     3757296.6778                   CHD =         177.1248     CHD_0                            

            TOTAL IN =   141667594.5107              TOTAL IN =       47028.8922

          OUT:                                     OUT:
          ----                                     ----
              STO-SS =           0.0000                STO-SS =           0.0000     STORAGE                          
      CSUB-CGELASTIC =      548112.8185        CSUB-CGELASTIC =           0.0000     CSUB                             
        CSUB-ELASTIC =      244061.3137          CSUB-ELASTIC =           0.0000     CSUB                             
      CSUB-INELASTIC =           0.0000        CSUB-INELASTIC =           0.0000     CSUB                             
      CSUB-WATERCOMP =           0.0000        CSUB-WATERCOMP =           0.0000     CSUB                             
                 WEL =    98617500.0000                   WEL =       30000.0000     WEL_0                            
                RCHA =           0.0000                  RCHA =           0.0000     RCHA_0                           
                 CHD =    42257920.3775                   CHD =       17028.8922     CHD_0                            

           TOTAL OUT =   141667594.5097             TOTAL OUT =       47028.8922

            IN - OUT =       1.0373E-03              IN - OUT =       2.6457E-07

 PERCENT DISCREPANCY =           0.00     PERCENT DISCREPANCY =           0.00




         TIME SUMMARY AT END OF TIME STEP    6 IN STRESS PERIOD   10
                    SECONDS     MINUTES      HOURS       DAYS        YEARS
                    -----------------------------------------------------------
   TIME STEP LENGTH 9.18555E+06 1.53093E+05  2551.5      106.31     0.29107    
 STRESS PERIOD TIME 3.15576E+07 5.25960E+05  8766.0      365.25      1.0000    
         TOTAL TIME 2.84105E+08 4.73508E+06  78918.      3288.2      9.0027    


end timestep


start timestep kper="11" kstp="1" mode="normal"


 OUTPUT CONTROL FOR STRESS PERIOD 11 IS REPEATED USING SETTINGS FROM A PREVIOUS STRESS PERIOD.


 STRESS PERIOD 11 IS TRANSIENT


 REUSING CSUBS FROM LAST STRESS PERIOD

 REUSING WELS FROM LAST STRESS PERIOD

 REUSING RCHS FROM LAST STRESS PERIOD

 REUSING CHDS FROM LAST STRESS PERIOD

end timestep


start timestep kper="11" kstp="2" mode="normal"


end timestep


start timestep kper="11" kstp="3" mode="normal"


end timestep


start timestep kper="11" kstp="4" mode="normal"


end timestep


start timestep kper="11" kstp="5" mode="normal"


end timestep


start timestep kper="11" kstp="6" mode="normal"

 UBDSV1 SAVING  CSUB-CGELASTIC  ON UNIT   1021 AT TIME STEP      6, STRESS PERIOD     11
 UBDSV06 SAVING    CSUB-ELASTIC  IN MODEL CSUB_SUB03A      PACKAGE CSUB_SUB03A     CONNECTED TO MODEL CSUB_SUB03A      PACKAGE CSUB             ON UNIT   1021 AT TIME STEP      6, STRESS PERIOD     11
 UBDSV06 SAVING  CSUB-INELASTIC  IN MODEL CSUB_SUB03A      PACKAGE CSUB_SUB03A     CONNECTED TO MODEL CSUB_SUB03A      PACKAGE CSUB             ON UNIT   1021 AT TIME STEP      6, STRESS PERIOD     11
 UBDSV1 SAVING  CSUB-WATERCOMP  ON UNIT   1021 AT TIME STEP      6, STRESS PERIOD     11

 WEL PACKAGE (WEL_0) FLOW RATES   PERIOD     11   STEP        6
 -----------------------------------------------
   NUMBER   CELLID                    RATE      
 -----------------------------------------------
     1      (3,3,6)              -14000.000     
     2      (3,3,7)              -8000.0000     
     3      (3,4,6)              -5000.0000     
     4      (3,4,7)              -3000.0000     
 -----------------------------------------------




 CSUB-COMPACTION WILL BE SAVED ON UNIT 1017 AT END OF TIME STEP    6, STRESS PERIOD   11
1
  HEAD IN LAYER   1 AT END OF TIME STEP   6 IN STRESS PERIOD   11
  ---------------------------------------------------------------------------

                1               2               3               4               5               6               7               8               9              10
 ................................................................................................................................................................
   1      17.9937         17.5630         16.7464         16.2200         15.9470         15.9133         16.1217         16.5919         17.3664         17.7743    
   2      16.8719         16.2594         15.7339         15.3514         15.1336         15.0886         15.2192         15.5227         15.9851         16.5608    
   3      15.3488         14.7523         14.2938         13.9679         13.7724         13.7063         13.7701         13.9649         14.2983         14.7983    
   4      13.3510         12.8318         12.4605         12.1999         12.0329         11.9495         11.9407         11.9933         12.0847         12.1732    
   5      10.5565         10.4461         10.3088         10.1827         10.0852         10.0226         9.99407         9.99308         10.0080         10.0232    
   6      8.31369         8.27794         8.22182         8.16128         8.10834         8.06985         8.04771         8.03949         8.03974         8.04213    
   7      6.30976         6.28679         6.24799         6.20492         6.16904         6.14724         6.14118         6.14748         6.15839         6.16606    
   8      4.48143         4.44146         4.37369         4.30203         4.25568         4.24385         4.26751         4.31941         4.37245         4.40449    
   9      2.88564         2.77852         2.58576         2.36837         2.27454         2.26882         2.35134         2.55753         2.74162         2.84404    
  10      1.78154         1.51970        0.956962         0.00000         0.00000         0.00000         0.00000        0.944651         1.49908         1.75670    
1
  HEAD IN LAYER   2 AT END OF TIME STEP   6 IN STRESS PERIOD   11
  ---------------------------------------------------------------------------

                1               2               3               4               5               6               7               8               9              10
 ................................................................................................................................................................
   1     -7.93497        -7.95265        -7.97482        -7.99809        -8.01971        -8.03761        -8.05070        -8.05918        -8.06455        -8.06942    
   2     -7.88889        -7.91499        -8.36578        -8.65537        -8.84283        -9.01285        -9.02111        -8.91523        -8.79220        -8.09324    
   3     -7.85308        -8.38229        -8.57635        -8.91210        -9.49150        -10.4627        -10.2292        -9.48205        -9.02677        -8.09927    
   4     -7.81131        -8.19165        -8.37198        -8.63839        -9.01773        -9.52273        -9.45911        -9.09332        -8.80691        -8.06332    
   5     -7.75516        -7.92281        -8.02755        -8.15193        -8.29283        -8.41622        -8.44347        -8.39622        -8.31285        -7.97475    
   6     -7.69406        -7.65987        -7.70637        -7.76199        -7.81948        -7.86669        -7.89154        -7.89522        -7.88232        -7.88822    
   7     -7.65781        -7.48240        -7.49831        -7.52294        -7.54864        -7.57040        -7.58509        -7.59235        -7.59969        -7.81697    
   8     -7.64576        -7.42749        -7.43756        -7.45600        -7.47222        -7.48345        -7.48827        -7.48685        -7.49255        -7.76703    
   9     -7.65509        -7.49012        -7.51977        -7.56011        -7.58170        -7.58809        -7.57871        -7.54847        -7.52848        -7.73798    
  10     -7.68003        -7.68864        -7.69898        -7.70944        -7.71718        -7.72221        -7.72450        -7.72401        -7.72351        -7.72460    
1
  HEAD IN LAYER   3 AT END OF TIME STEP   6 IN STRESS PERIOD   11
  ---------------------------------------------------------------------------

                1               2               3               4               5               6               7               8               9              10
 ................................................................................................................................................................
   1     -31.8857        -32.0563        -32.3752        -32.7943        -33.2353        -33.5912        -33.7574        -33.7548        -33.6826        -33.6246    
   2     -31.8589        -32.1207        -32.6354        -33.3723        -34.2457        -35.0249        -35.1083        -34.7088        -34.3013        -34.0665    
   3     -31.4398        -31.8314        -32.6651        -34.0676        -36.3040        -39.9205        -39.0700        -36.3704        -34.9016        -34.2473    
   4     -30.1027        -30.4206        -31.0730        -32.0942        -33.5282        -35.4021        -35.1388        -33.7956        -32.9187        -32.4890    
   5     -28.1243        -28.3006        -28.6408        -29.1135        -29.6494        -30.1051        -30.1970        -30.0145        -29.7988        -29.6670    
   6     -26.0451        -26.1292        -26.2860        -26.4914        -26.7072        -26.8835        -26.9737        -26.9851        -26.9605        -26.9380    
   7     -24.2074        -24.2459        -24.3173        -24.4097        -24.5070        -24.5921        -24.6522        -24.6858        -24.7003        -24.7049    
   8     -22.7697        -22.7878        -22.8218        -22.8663        -22.9147        -22.9599        -22.9970        -23.0236        -23.0402        -23.0482    
   9     -21.7950        -21.8045        -21.8226        -21.8467        -21.8736        -21.9001        -21.9234        -21.9418        -21.9544        -21.9611    
  10     -21.3050        -21.3114        -21.3236        -21.3399        -21.3585        -21.3774        -21.3946        -21.4087        -21.4186        -21.4238    

 HEAD WILL BE SAVED ON UNIT 1022 AT END OF TIME STEP    6, STRESS PERIOD   11


  VOLUME BUDGET FOR ENTIRE MODEL AT END OF TIME STEP    6, STRESS PERIOD  11
  ---------------------------------------------------------------------------------------------------

     CUMULATIVE VOLUME      L**3       RATES FOR THIS TIME STEP      L**3/T          PACKAGE NAME    
     ------------------                 ------------------------                     ----------------

           IN:                                      IN:
           ---                                      ---
              STO-SS =           0.0000                STO-SS =           0.0000     STORAGE                          
      CSUB-CGELASTIC =     4893582.1292        CSUB-CGELASTIC =         502.5846     CSUB                             
        CSUB-ELASTIC =     1606468.9727          CSUB-ELASTIC =          12.2468     CSUB                             
      CSUB-INELASTIC =    79426462.6204        CSUB-INELASTIC =       19169.4501     CSUB                             
      CSUB-WATERCOMP =           0.0000        CSUB-WATERCOMP =           0.0000     CSUB                             
                 WEL =           0.0000                   WEL =           0.0000     WEL_0                            
                RCHA =    69059250.0000                  RCHA =       27000.0000     RCHA_0                           
                 CHD =     3823719.3730                   CHD =         185.2400     CHD_0                            

            TOTAL IN =   158809483.0952              TOTAL IN =       46869.5215

          OUT:                                     OUT:
          ----                                     ----
              STO-SS =           0.0000                STO-SS =           0.0000     STORAGE                          
      CSUB-CGELASTIC =      548112.8185        CSUB-CGELASTIC =           0.0000     CSUB                             
        CSUB-ELASTIC =      244061.3137          CSUB-ELASTIC =           0.0000     CSUB                             
      CSUB-INELASTIC =           0.0000        CSUB-INELASTIC =           0.0000     CSUB                             
      CSUB-WATERCOMP =           0.0000        CSUB-WATERCOMP =           0.0000     CSUB                             
                 WEL =   109575000.0000                   WEL =       30000.0000     WEL_0                            
                RCHA =           0.0000                  RCHA =           0.0000     RCHA_0                           
                 CHD =    48442308.9618                   CHD =       16869.5215     CHD_0                            

           TOTAL OUT =   158809483.0940             TOTAL OUT =       46869.5215

            IN - OUT =       1.1446E-03              IN - OUT =       2.1601E-07

 PERCENT DISCREPANCY =           0.00     PERCENT DISCREPANCY =           0.00




         TIME SUMMARY AT END OF TIME STEP    6 IN STRESS PERIOD   11
                    SECONDS     MINUTES      HOURS       DAYS        YEARS
                    -----------------------------------------------------------
   TIME STEP LENGTH 9.18555E+06 1.53093E+05  2551.5      106.31     0.29107    
 STRESS PERIOD TIME 3.15576E+07 5.25960E+05  8766.0      365.25      1.0000    
         TOTAL TIME 3.15662E+08 5.26104E+06  87684.      3653.5      10.003    


end timestep


start timestep kper="12" kstp="1" mode="normal"


 OUTPUT CONTROL FOR STRESS PERIOD 12 IS REPEATED USING SETTINGS FROM A PREVIOUS STRESS PERIOD.


 STRESS PERIOD 12 IS TRANSIENT


 REUSING CSUBS FROM LAST STRESS PERIOD

 REUSING WELS FROM LAST STRESS PERIOD

 REUSING RCHS FROM LAST STRESS PERIOD

 REUSING CHDS FROM LAST STRESS PERIOD

end timestep


start timestep kper="12" kstp="2" mode="normal"


end timestep


start timestep kper="12" kstp="3" mode="normal"


end timestep


start timestep kper="12" kstp="4" mode="normal"


end timestep


start timestep kper="12" kstp="5" mode="normal"


end timestep


start timestep kper="12" kstp="6" mode="normal"

 UBDSV1 SAVING  CSUB-CGELASTIC  ON UNIT   1021 AT TIME STEP      6, STRESS PERIOD     12
 UBDSV06 SAVING    CSUB-ELASTIC  IN MODEL CSUB_SUB03A      PACKAGE CSUB_SUB03A     CONNECTED TO MODEL CSUB_SUB03A      PACKAGE CSUB             ON UNIT   1021 AT TIME STEP      6, STRESS PERIOD     12
 UBDSV06 SAVING  CSUB-INELASTIC  IN MODEL CSUB_SUB03A      PACKAGE CSUB_SUB03A     CONNECTED TO MODEL CSUB_SUB03A      PACKAGE CSUB             ON UNIT   1021 AT TIME STEP      6, STRESS PERIOD     12
 UBDSV1 SAVING  CSUB-WATERCOMP  ON UNIT   1021 AT TIME STEP      6, STRESS PERIOD     12

 WEL PACKAGE (WEL_0) FLOW RATES   PERIOD     12   STEP        6
 -----------------------------------------------
   NUMBER   CELLID                    RATE      
 -----------------------------------------------
     1      (3,3,6)              -14000.000     
     2      (3,3,7)              -8000.0000     
     3      (3,4,6)              -5000.0000     
     4      (3,4,7)              -3000.0000     
 -----------------------------------------------




 CSUB-COMPACTION WILL BE SAVED ON UNIT 1017 AT END OF TIME STEP    6, STRESS PERIOD   12
1
  HEAD IN LAYER   1 AT END OF TIME STEP   6 IN STRESS PERIOD   12
  ---------------------------------------------------------------------------

                1               2               3               4               5               6               7               8               9              10
 ................................................................................................................................................................
   1      17.9209         17.4903         16.6738         16.1474         15.8745         15.8408         16.0493         16.5195         17.2940         17.7019    
   2      16.8010         16.1884         15.6632         15.2809         15.0631         15.0181         15.1487         15.4522         15.9146         16.4902    
   3      15.2813         14.6849         14.2264         13.9004         13.7047         13.6384         13.7022         13.8971         14.2305         14.7305    
   4      13.2878         12.7687         12.3973         12.1366         11.9694         11.8858         11.8769         11.9296         12.0210         12.1094    
   5      10.4988         10.3884         10.2510         10.1249         10.0273         9.96453         9.93589         9.93484         9.94970         9.96489    
   6      8.26254         8.22688         8.17082         8.11028         8.05729         8.01871         7.99645         7.98810         7.98823         7.99051    
   7      6.26653         6.24373         6.20513         6.16220         6.12638         6.10452         6.09829         6.10435         6.11501         6.12249    
   8      4.44731         4.40773         4.34054         4.26944         4.22338         4.21151         4.23480         4.28608         4.33850         4.37014    
   9      2.86112         2.75503         2.56406         2.34867         2.25566         2.24992         2.33158         2.53573         2.71799         2.81937    
  10      1.76467         1.50530        0.947892         0.00000         0.00000         0.00000         0.00000        0.935534         1.48460         1.73973    
1
  HEAD IN LAYER   2 AT END OF TIME STEP   6 IN STRESS PERIOD   12
  ---------------------------------------------------------------------------

                1               2               3               4               5               6               7               8               9              10
 ................................................................................................................................................................
   1     -8.31749        -8.34324        -8.37029        -8.39552        -8.41656        -8.43165        -8.43984        -8.44139        -8.43781        -8.43193    
   2     -8.22764        -8.44037        -8.58009        -8.77680        -9.01165        -9.21373        -9.21762        -9.07877        -8.90368        -8.40841    
   3     -8.15254        -8.47149        -8.73344        -9.14050        -9.80514        -10.8706        -10.6164        -9.78784        -9.25691        -8.38499    
   4     -8.09428        -8.34223        -8.57189        -8.88865        -9.32447        -9.88507        -9.81585        -9.40983        -9.08306        -8.34667    
   5     -8.05262        -8.12979        -8.25397        -8.40199        -8.56653        -8.70810        -8.73976        -8.68636        -8.59271        -8.29030    
   6     -8.02390        -7.90519        -7.95739        -8.02339        -8.09121        -8.14650        -8.17555        -8.17999        -8.16828        -8.22986    
   7     -8.01126        -7.76086        -7.77703        -7.80738        -7.83857        -7.86459        -7.88175        -7.88996        -7.90209        -8.17857    
   8     -8.01696        -7.73930        -7.74917        -7.77283        -7.79322        -7.80678        -7.81186        -7.80908        -7.81821        -8.14370    
   9     -8.03979        -7.83798        -7.87309        -7.92346        -7.95016        -7.95785        -7.94585        -7.90785        -7.88458        -8.12602    
  10     -8.07510        -8.08572        -8.09755        -8.10902        -8.11733        -8.12252        -8.12455        -8.12339        -8.12177        -8.12124    
1
  HEAD IN LAYER   3 AT END OF TIME STEP   6 IN STRESS PERIOD   12
  ---------------------------------------------------------------------------

                1               2               3               4               5               6               7               8               9              10
 ................................................................................................................................................................
   1     -33.6395        -33.8100        -34.1286        -34.5472        -34.9878        -35.3434        -35.5092        -35.5064        -35.4341        -35.3759    
   2     -33.6086        -33.8703        -34.3842        -35.1204        -35.9934        -36.7724        -36.8555        -36.4558        -36.0482        -35.8136    
   3     -33.1818        -33.5730        -34.4065        -35.8090        -38.0454        -41.6619        -40.8112        -38.1113        -36.6423        -35.9880    
   4     -31.8358        -32.1535        -32.8059        -33.8272        -35.2613        -37.1352        -36.8719        -35.5286        -34.6515        -34.2218    
   5     -29.8484        -30.0245        -30.3647        -30.8374        -31.3734        -31.8292        -31.9211        -31.7385        -31.5228        -31.3911    
   6     -27.7607        -27.8446        -28.0013        -28.2067        -28.4225        -28.5989        -28.6892        -28.7006        -28.6761        -28.6537    
   7     -25.9156        -25.9540        -26.0253        -26.1176        -26.2149        -26.3000        -26.3602        -26.3939        -26.4085        -26.4132    
   8     -24.4723        -24.4903        -24.5241        -24.5686        -24.6169        -24.6622        -24.6993        -24.7260        -24.7426        -24.7508    
   9     -23.4938        -23.5032        -23.5212        -23.5453        -23.5722        -23.5987        -23.6221        -23.6405        -23.6532        -23.6598    
  10     -23.0020        -23.0084        -23.0205        -23.0368        -23.0555        -23.0743        -23.0915        -23.1056        -23.1156        -23.1207    

 HEAD WILL BE SAVED ON UNIT 1022 AT END OF TIME STEP    6, STRESS PERIOD   12


  VOLUME BUDGET FOR ENTIRE MODEL AT END OF TIME STEP    6, STRESS PERIOD  12
  ---------------------------------------------------------------------------------------------------

     CUMULATIVE VOLUME      L**3       RATES FOR THIS TIME STEP      L**3/T          PACKAGE NAME    
     ------------------                 ------------------------                     ----------------

           IN:                                      IN:
           ---                                      ---
              STO-SS =           0.0000                STO-SS =           0.0000     STORAGE                          
      CSUB-CGELASTIC =     5071725.5242        CSUB-CGELASTIC =         478.2386     CSUB                             
        CSUB-ELASTIC =     1608978.2632          CSUB-ELASTIC =           4.0209     CSUB                             
      CSUB-INELASTIC =    86400712.6213        CSUB-INELASTIC =       19042.4322     CSUB                             
      CSUB-WATERCOMP =           0.0000        CSUB-WATERCOMP =           0.0000     CSUB                             
                 WEL =           0.0000                   WEL =           0.0000     WEL_0                            
                RCHA =    78921000.0000                  RCHA =       27000.0000     RCHA_0                           
                 CHD =     3893443.1195                   CHD =         194.8405     CHD_0                            

            TOTAL IN =   175895859.5282              TOTAL IN =       46719.5323

          OUT:                                     OUT:
          ----                                     ----
              STO-SS =           0.0000                STO-SS =           0.0000     STORAGE                          
      CSUB-CGELASTIC =      548112.8185        CSUB-CGELASTIC =           0.0000     CSUB                             
        CSUB-ELASTIC =      244061.3137          CSUB-ELASTIC =           0.0000     CSUB                             
      CSUB-INELASTIC =           0.0000        CSUB-INELASTIC =           0.0000     CSUB                             
      CSUB-WATERCOMP =           0.0000        CSUB-WATERCOMP =           0.0000     CSUB                             
                 WEL =   120532500.0000                   WEL =       30000.0000     WEL_0                            
                RCHA =           0.0000                  RCHA =           0.0000     RCHA_0                           
                 CHD =    54571185.3946                   CHD =       16719.5323     CHD_0                            

           TOTAL OUT =   175895859.5268             TOTAL OUT =       46719.5323

            IN - OUT =       1.3639E-03              IN - OUT =       6.5316E-07

 PERCENT DISCREPANCY =           0.00     PERCENT DISCREPANCY =           0.00




         TIME SUMMARY AT END OF TIME STEP    6 IN STRESS PERIOD   12
                    SECONDS     MINUTES      HOURS       DAYS        YEARS
                    -----------------------------------------------------------
   TIME STEP LENGTH 9.18555E+06 1.53093E+05  2551.5      106.31     0.29107    
 STRESS PERIOD TIME 3.15576E+07 5.25960E+05  8766.0      365.25      1.0000    
         TOTAL TIME 3.47220E+08 5.78700E+06  96450.      4018.8      11.003    


end timestep


start timestep kper="13" kstp="1" mode="normal"


 OUTPUT CONTROL FOR STRESS PERIOD 13 IS REPEATED USING SETTINGS FROM A PREVIOUS STRESS PERIOD.


 STRESS PERIOD 13 IS TRANSIENT


 REUSING CSUBS FROM LAST STRESS PERIOD

 REUSING WELS FROM LAST STRESS PERIOD

 REUSING RCHS FROM LAST STRESS PERIOD

 REUSING CHDS FROM LAST STRESS PERIOD

end timestep


start timestep kper="13" kstp="2" mode="normal"


end timestep


start timestep kper="13" kstp="3" mode="normal"


end timestep


start timestep kper="13" kstp="4" mode="normal"


end timestep


start timestep kper="13" kstp="5" mode="normal"


end timestep


start timestep kper="13" kstp="6" mode="normal"

 UBDSV1 SAVING  CSUB-CGELASTIC  ON UNIT   1021 AT TIME STEP      6, STRESS PERIOD     13
 UBDSV06 SAVING    CSUB-ELASTIC  IN MODEL CSUB_SUB03A      PACKAGE CSUB_SUB03A     CONNECTED TO MODEL CSUB_SUB03A      PACKAGE CSUB             ON UNIT   1021 AT TIME STEP      6, STRESS PERIOD     13
 UBDSV06 SAVING  CSUB-INELASTIC  IN MODEL CSUB_SUB03A      PACKAGE CSUB_SUB03A     CONNECTED TO MODEL CSUB_SUB03A      PACKAGE CSUB             ON UNIT   1021 AT TIME STEP      6, STRESS PERIOD     13
 UBDSV1 SAVING  CSUB-WATERCOMP  ON UNIT   1021 AT TIME STEP      6, STRESS PERIOD     13

 WEL PACKAGE (WEL_0) FLOW RATES   PERIOD     13   STEP        6
 -----------------------------------------------
   NUMBER   CELLID                    RATE      
 -----------------------------------------------
     1      (3,3,6)              -14000.000     
     2      (3,3,7)              -8000.0000     
     3      (3,4,6)              -5000.0000     
     4      (3,4,7)              -3000.0000     
 -----------------------------------------------




 CSUB-COMPACTION WILL BE SAVED ON UNIT 1017 AT END OF TIME STEP    6, STRESS PERIOD   13
1
  HEAD IN LAYER   1 AT END OF TIME STEP   6 IN STRESS PERIOD   13
  ---------------------------------------------------------------------------

                1               2               3               4               5               6               7               8               9              10
 ................................................................................................................................................................
   1      17.8527         17.4219         16.6053         16.0789         15.8058         15.7720         15.9803         16.4505         17.2249         17.6328    
   2      16.7333         16.1207         15.5953         15.2127         14.9947         14.9495         15.0800         15.3835         15.8459         16.4216    
   3      15.2151         14.6186         14.1599         13.8335         13.6375         13.5710         13.6347         13.8296         14.1631         14.6632    
   4      13.2243         12.7052         12.3336         12.0726         11.9052         11.8213         11.8124         11.8650         11.9565         12.0450    
   5      10.4396         10.3292         10.1918         10.0655         9.96773         9.90481         9.87606         9.87493         9.88976         9.90494    
   6      8.20936         8.17374         8.11768         8.05712         8.00406         7.96538         7.94300         7.93453         7.93456         7.93677    
   7      6.22106         6.19839         6.15995         6.11717         6.08140         6.05947         6.05307         6.05888         6.06930         6.07664    
   8      4.41110         4.37189         4.30529         4.23477         4.18902         4.17711         4.20001         4.25063         4.30242         4.33367    
   9      2.83491         2.72989         2.54084         2.32759         2.23545         2.22969         2.31043         2.51239         2.69271         2.79299    
  10      1.74655         1.48985        0.938153         0.00000         0.00000         0.00000         0.00000        0.925742         1.46906         1.72151    
1
  HEAD IN LAYER   2 AT END OF TIME STEP   6 IN STRESS PERIOD   13
  ---------------------------------------------------------------------------

                1               2               3               4               5               6               7               8               9              10
 ................................................................................................................................................................
   1     -8.45967        -8.47642        -8.49801        -8.52092        -8.54228        -8.56000        -8.57303        -8.58171        -8.58778        -8.59416    
   2     -8.41998        -8.56271        -8.75539        -9.00001        -9.27563        -9.50529        -9.50545        -9.33823        -9.12015        -8.62859    
   3     -8.39858        -8.66901        -8.98679        -9.45561        -10.1939        -11.3395        -11.0680        -10.1698        -9.57385        -8.65741    
   4     -8.38753        -8.59147        -8.86179        -9.22222        -9.70691        -10.3151        -10.2413        -9.80073        -9.43899        -8.66302    
   5     -8.38528        -8.42657        -8.56621        -8.73470        -8.91972        -9.07704        -9.11255        -9.05382        -8.95161        -8.64205    
   6     -8.38860        -8.23420        -8.29015        -8.36511        -8.44188        -8.50418        -8.53689        -8.54203        -8.53202        -8.60961    
   7     -8.40167        -8.11756        -8.13292        -8.16817        -8.20410        -8.23382        -8.25315        -8.26226        -8.27928        -8.58028    
   8     -8.42784        -8.12378        -8.13264        -8.16073        -8.18471        -8.20029        -8.20562        -8.20179        -8.21456        -8.56255    
   9     -8.46689        -8.25260        -8.29177        -8.35055        -8.38160        -8.39042        -8.37622        -8.33179        -8.30623        -8.55820    
  10     -8.51504        -8.52819        -8.54193        -8.55472        -8.56382        -8.56927        -8.57104        -8.56909        -8.56612        -8.56367    
1
  HEAD IN LAYER   3 AT END OF TIME STEP   6 IN STRESS PERIOD   13
  ---------------------------------------------------------------------------

                1               2               3               4               5               6               7               8               9              10
 ................................................................................................................................................................
   1     -35.2929        -35.4634        -35.7821        -36.2009        -36.6416        -36.9973        -37.1632        -37.1604        -37.0881        -37.0300    
   2     -35.2610        -35.5227        -36.0368        -36.7734        -37.6468        -38.4260        -38.5092        -38.1094        -37.7017        -37.4670    
   3     -34.8321        -35.2234        -36.0572        -37.4602        -39.6972        -43.3141        -42.4635        -39.7634        -38.2942        -37.6397    
   4     -33.4830        -33.8007        -34.4534        -35.4751        -36.9097        -38.7840        -38.5208        -37.1774        -36.3002        -35.8703    
   5     -31.4917        -31.6678        -32.0082        -32.4812        -33.0174        -33.4734        -33.5655        -33.3830        -33.1673        -33.0356    
   6     -29.4000        -29.4839        -29.6407        -29.8462        -30.0622        -30.2387        -30.3291        -30.3406        -30.3162        -30.2938    
   7     -27.5513        -27.5896        -27.6609        -27.7533        -27.8507        -27.9359        -27.9962        -28.0300        -28.0447        -28.0495    
   8     -26.1051        -26.1230        -26.1569        -26.2015        -26.2498        -26.2952        -26.3323        -26.3591        -26.3758        -26.3840    
   9     -25.1248        -25.1341        -25.1522        -25.1763        -25.2033        -25.2298        -25.2532        -25.2717        -25.2843        -25.2910    
  10     -24.6320        -24.6385        -24.6506        -24.6670        -24.6856        -24.7045        -24.7217        -24.7359        -24.7458        -24.7510    

 HEAD WILL BE SAVED ON UNIT 1022 AT END OF TIME STEP    6, STRESS PERIOD   13


  VOLUME BUDGET FOR ENTIRE MODEL AT END OF TIME STEP    6, STRESS PERIOD  13
  ---------------------------------------------------------------------------------------------------

     CUMULATIVE VOLUME      L**3       RATES FOR THIS TIME STEP      L**3/T          PACKAGE NAME    
     ------------------                 ------------------------                     ----------------

           IN:                                      IN:
           ---                                      ---
              STO-SS =           0.0000                STO-SS =           0.0000     STORAGE                          
      CSUB-CGELASTIC =     5241732.1848        CSUB-CGELASTIC =         457.6848     CSUB                             
        CSUB-ELASTIC =     1609867.0187          CSUB-ELASTIC =           2.6735     CSUB                             
      CSUB-INELASTIC =    93324579.9598        CSUB-INELASTIC =       18892.8268     CSUB                             
      CSUB-WATERCOMP =           0.0000        CSUB-WATERCOMP =           0.0000     CSUB                             
                 WEL =           0.0000                   WEL =           0.0000     WEL_0                            
                RCHA =    88782750.0000                  RCHA =       27000.0000     RCHA_0                           
                 CHD =     3966926.3193                   CHD =         205.5531     CHD_0                            

            TOTAL IN =   192925855.4825              TOTAL IN =       46558.7382

          OUT:                                     OUT:
          ----                                     ----
              STO-SS =           0.0000                STO-SS =           0.0000     STORAGE                          
      CSUB-CGELASTIC =      548112.8185        CSUB-CGELASTIC =           0.0000     CSUB                             
        CSUB-ELASTIC =      244061.3137          CSUB-ELASTIC =           0.0000     CSUB                             
      CSUB-INELASTIC =           0.0000        CSUB-INELASTIC =           0.0000     CSUB                             
      CSUB-WATERCOMP =           0.0000        CSUB-WATERCOMP =           0.0000     CSUB                             
                 WEL =   131490000.0000                   WEL =       30000.0000     WEL_0                            
                RCHA =           0.0000                  RCHA =           0.0000     RCHA_0                           
                 CHD =    60643681.3487                   CHD =       16558.7382     CHD_0                            

           TOTAL OUT =   192925855.4809             TOTAL OUT =       46558.7382

            IN - OUT =       1.5595E-03              IN - OUT =       4.9604E-07

 PERCENT DISCREPANCY =           0.00     PERCENT DISCREPANCY =           0.00




         TIME SUMMARY AT END OF TIME STEP    6 IN STRESS PERIOD   13
                    SECONDS     MINUTES      HOURS       DAYS        YEARS
                    -----------------------------------------------------------
   TIME STEP LENGTH 9.18555E+06 1.53093E+05  2551.5      106.31     0.29107    
 STRESS PERIOD TIME 3.15576E+07 5.25960E+05  8766.0      365.25      1.0000    
         TOTAL TIME 3.78778E+08 6.31296E+06 1.05216E+05  4384.0      12.003    


end timestep


start timestep kper="14" kstp="1" mode="normal"


 OUTPUT CONTROL FOR STRESS PERIOD 14 IS REPEATED USING SETTINGS FROM A PREVIOUS STRESS PERIOD.


 STRESS PERIOD 14 IS TRANSIENT


 REUSING CSUBS FROM LAST STRESS PERIOD

 REUSING WELS FROM LAST STRESS PERIOD

 REUSING RCHS FROM LAST STRESS PERIOD

 REUSING CHDS FROM LAST STRESS PERIOD

end timestep


start timestep kper="14" kstp="2" mode="normal"


end timestep


start timestep kper="14" kstp="3" mode="normal"


end timestep


start timestep kper="14" kstp="4" mode="normal"


end timestep


start timestep kper="14" kstp="5" mode="normal"


end timestep


start timestep kper="14" kstp="6" mode="normal"

 UBDSV1 SAVING  CSUB-CGELASTIC  ON UNIT   1021 AT TIME STEP      6, STRESS PERIOD     14
 UBDSV06 SAVING    CSUB-ELASTIC  IN MODEL CSUB_SUB03A      PACKAGE CSUB_SUB03A     CONNECTED TO MODEL CSUB_SUB03A      PACKAGE CSUB             ON UNIT   1021 AT TIME STEP      6, STRESS PERIOD     14
 UBDSV06 SAVING  CSUB-INELASTIC  IN MODEL CSUB_SUB03A      PACKAGE CSUB_SUB03A     CONNECTED TO MODEL CSUB_SUB03A      PACKAGE CSUB             ON UNIT   1021 AT TIME STEP      6, STRESS PERIOD     14
 UBDSV1 SAVING  CSUB-WATERCOMP  ON UNIT   1021 AT TIME STEP      6, STRESS PERIOD     14

 WEL PACKAGE (WEL_0) FLOW RATES   PERIOD     14   STEP        6
 -----------------------------------------------
   NUMBER   CELLID                    RATE      
 -----------------------------------------------
     1      (3,3,6)              -14000.000     
     2      (3,3,7)              -8000.0000     
     3      (3,4,6)              -5000.0000     
     4      (3,4,7)              -3000.0000     
 -----------------------------------------------




 CSUB-COMPACTION WILL BE SAVED ON UNIT 1017 AT END OF TIME STEP    6, STRESS PERIOD   14
1
  HEAD IN LAYER   1 AT END OF TIME STEP   6 IN STRESS PERIOD   14
  ---------------------------------------------------------------------------

                1               2               3               4               5               6               7               8               9              10
 ................................................................................................................................................................
   1      17.7658         17.3350         16.5184         15.9918         15.7186         15.6847         15.8930         16.3631         17.1375         17.5454    
   2      16.6476         16.0350         15.5095         15.1267         14.9085         14.8632         14.9936         15.2971         15.7595         16.3352    
   3      15.1319         14.5354         14.0765         13.7499         13.5536         13.4869         13.5505         13.7455         14.0791         14.5793    
   4      13.1453         12.6261         12.2544         11.9932         11.8255         11.7415         11.7325         11.7851         11.8766         11.9652    
   5      10.3666         10.2562         10.1186         9.99227         9.89435         9.83131         9.80247         9.80130         9.81611         9.83131    
   6      8.14427         8.10867         8.05262         7.99204         7.93893         7.90016         7.87768         7.86910         7.86905         7.87122    
   7      6.16583         6.14328         6.10503         6.06242         6.02672         6.00474         5.99815         6.00371         6.01389         6.02108    
   8      4.36745         4.32866         4.26274         4.19291         4.14753         4.13559         4.15805         4.20792         4.25898         4.28980    
   9      2.80358         2.69982         2.51303         2.30232         2.21122         2.20544         2.28509         2.48448         2.66251         2.76152    
  10      1.72510         1.47154        0.926614         0.00000         0.00000         0.00000         0.00000        0.914156         1.45067         1.69996    
1
  HEAD IN LAYER   2 AT END OF TIME STEP   6 IN STRESS PERIOD   14
  ---------------------------------------------------------------------------

                1               2               3               4               5               6               7               8               9              10
 ................................................................................................................................................................
   1     -8.73339        -8.74551        -8.76378        -8.78475        -8.80559        -8.82417        -8.83941        -8.85159        -8.86238        -8.87458    
   2     -8.71712        -8.78393        -9.02000        -9.30590        -9.61667        -9.87005        -9.86707        -9.67545        -9.42101        -8.93626    
   3     -8.72237        -8.95399        -9.31870        -9.84103        -10.6429        -11.8568        -11.5708        -10.6131        -9.96039        -8.99408    
   4     -8.73904        -8.92052        -9.22506        -9.62334        -10.1503        -10.7992        -10.7216        -10.2515        -9.85867        -9.02819    
   5     -8.76378        -8.79575        -8.94835        -9.13457        -9.33735        -9.50833        -9.54718        -9.48384        -9.37378        -9.03368    
   6     -8.79207        -8.63055        -8.68943        -8.77212        -8.85665        -8.92505        -8.96094        -8.96672        -8.95811        -9.02476    
   7     -8.82732        -8.53709        -8.55147        -8.59090        -8.63095        -8.66388        -8.68510        -8.69506        -8.71640        -9.01562    
   8     -8.87259        -8.56641        -8.57421        -8.60604        -8.63311        -8.65044        -8.65603        -8.65138        -8.66744        -9.01473    
   9     -8.92768        -8.72026        -8.76280        -8.82857        -8.86332        -8.87312        -8.85709        -8.80738        -8.77995        -9.02403    
  10     -8.98897        -9.00476        -9.02051        -9.03472        -9.04467        -9.05041        -9.05191        -9.04914        -9.04475        -9.04025    
1
  HEAD IN LAYER   3 AT END OF TIME STEP   6 IN STRESS PERIOD   14
  ---------------------------------------------------------------------------

                1               2               3               4               5               6               7               8               9              10
 ................................................................................................................................................................
   1     -36.8645        -37.0351        -37.3539        -37.7729        -38.2138        -38.5697        -38.7358        -38.7331        -38.6609        -38.6028    
   2     -36.8326        -37.0943        -37.6087        -38.3457        -39.2195        -39.9990        -40.0824        -39.6826        -39.2748        -39.0401    
   3     -36.4037        -36.7951        -37.6293        -39.0328        -41.2702        -44.8876        -44.0372        -41.3370        -39.8676        -39.2129    
   4     -35.0541        -35.3719        -36.0249        -37.0471        -38.4821        -40.3568        -40.0937        -38.7503        -37.8730        -37.4430    
   5     -33.0618        -33.2380        -33.5786        -34.0519        -34.5884        -35.0447        -35.1369        -34.9545        -34.7387        -34.6070    
   6     -30.9689        -31.0528        -31.2097        -31.4154        -31.6316        -31.8083        -31.8988        -31.9104        -31.8860        -31.8637    
   7     -29.1191        -29.1574        -29.2288        -29.3213        -29.4188        -29.5041        -29.5645        -29.5984        -29.6131        -29.6179    
   8     -27.6720        -27.6899        -27.7239        -27.7685        -27.8169        -27.8623        -27.8995        -27.9263        -27.9431        -27.9514    
   9     -26.6910        -26.7005        -26.7185        -26.7427        -26.7698        -26.7964        -26.8198        -26.8383        -26.8509        -26.8576    
  10     -26.1980        -26.2045        -26.2167        -26.2331        -26.2518        -26.2707        -26.2880        -26.3021        -26.3121        -26.3172    

 HEAD WILL BE SAVED ON UNIT 1022 AT END OF TIME STEP    6, STRESS PERIOD   14


  VOLUME BUDGET FOR ENTIRE MODEL AT END OF TIME STEP    6, STRESS PERIOD  14
  ---------------------------------------------------------------------------------------------------

     CUMULATIVE VOLUME      L**3       RATES FOR THIS TIME STEP      L**3/T          PACKAGE NAME    
     ------------------                 ------------------------                     ----------------

           IN:                                      IN:
           ---                                      ---
              STO-SS =           0.0000                STO-SS =           0.0000     STORAGE                          
      CSUB-CGELASTIC =     5404968.9537        CSUB-CGELASTIC =         439.9502     CSUB                             
        CSUB-ELASTIC =     1610966.7943          CSUB-ELASTIC =           3.2213     CSUB                             
      CSUB-INELASTIC =   100185366.8096        CSUB-INELASTIC =       18706.8793     CSUB                             
      CSUB-WATERCOMP =           0.0000        CSUB-WATERCOMP =           0.0000     CSUB                             
                 WEL =           0.0000                   WEL =           0.0000     WEL_0                            
                RCHA =    98644500.0000                  RCHA =       27000.0000     RCHA_0                           
                 CHD =     4044509.5989                   CHD =         217.0902     CHD_0                            

            TOTAL IN =   209890312.1565              TOTAL IN =       46367.1410

          OUT:                                     OUT:
          ----                                     ----
              STO-SS =           0.0000                STO-SS =           0.0000     STORAGE                          
      CSUB-CGELASTIC =      548112.8185        CSUB-CGELASTIC =           0.0000     CSUB                             
        CSUB-ELASTIC =      244061.3137          CSUB-ELASTIC =           0.0000     CSUB                             
      CSUB-INELASTIC =           0.0000        CSUB-INELASTIC =           0.0000     CSUB                             
      CSUB-WATERCOMP =           0.0000        CSUB-WATERCOMP =           0.0000     CSUB                             
                 WEL =   142447500.0000                   WEL =       30000.0000     WEL_0                            
                RCHA =           0.0000                  RCHA =           0.0000     RCHA_0                           
                 CHD =    66650638.0224                   CHD =       16367.1410     CHD_0                            

           TOTAL OUT =   209890312.1546             TOTAL OUT =       46367.1410

            IN - OUT =       1.8084E-03              IN - OUT =       4.6789E-07

 PERCENT DISCREPANCY =           0.00     PERCENT DISCREPANCY =           0.00




         TIME SUMMARY AT END OF TIME STEP    6 IN STRESS PERIOD   14
                    SECONDS     MINUTES      HOURS       DAYS        YEARS
                    -----------------------------------------------------------
   TIME STEP LENGTH 9.18555E+06 1.53093E+05  2551.5      106.31     0.29107    
 STRESS PERIOD TIME 3.15576E+07 5.25960E+05  8766.0      365.25      1.0000    
         TOTAL TIME 4.10335E+08 6.83892E+06 1.13982E+05  4749.2      13.003    


end timestep


start timestep kper="15" kstp="1" mode="normal"


 OUTPUT CONTROL FOR STRESS PERIOD 15 IS REPEATED USING SETTINGS FROM A PREVIOUS STRESS PERIOD.


 STRESS PERIOD 15 IS TRANSIENT


 REUSING CSUBS FROM LAST STRESS PERIOD

 REUSING WELS FROM LAST STRESS PERIOD

 REUSING RCHS FROM LAST STRESS PERIOD

 REUSING CHDS FROM LAST STRESS PERIOD

end timestep


start timestep kper="15" kstp="2" mode="normal"


end timestep


start timestep kper="15" kstp="3" mode="normal"


end timestep


start timestep kper="15" kstp="4" mode="normal"


end timestep


start timestep kper="15" kstp="5" mode="normal"


end timestep


start timestep kper="15" kstp="6" mode="normal"

 UBDSV1 SAVING  CSUB-CGELASTIC  ON UNIT   1021 AT TIME STEP      6, STRESS PERIOD     15
 UBDSV06 SAVING    CSUB-ELASTIC  IN MODEL CSUB_SUB03A      PACKAGE CSUB_SUB03A     CONNECTED TO MODEL CSUB_SUB03A      PACKAGE CSUB             ON UNIT   1021 AT TIME STEP      6, STRESS PERIOD     15
 UBDSV06 SAVING  CSUB-INELASTIC  IN MODEL CSUB_SUB03A      PACKAGE CSUB_SUB03A     CONNECTED TO MODEL CSUB_SUB03A      PACKAGE CSUB             ON UNIT   1021 AT TIME STEP      6, STRESS PERIOD     15
 UBDSV1 SAVING  CSUB-WATERCOMP  ON UNIT   1021 AT TIME STEP      6, STRESS PERIOD     15

 WEL PACKAGE (WEL_0) FLOW RATES   PERIOD     15   STEP        6
 -----------------------------------------------
   NUMBER   CELLID                    RATE      
 -----------------------------------------------
     1      (3,3,6)              -14000.000     
     2      (3,3,7)              -8000.0000     
     3      (3,4,6)              -5000.0000     
     4      (3,4,7)              -3000.0000     
 -----------------------------------------------




 CSUB-COMPACTION WILL BE SAVED ON UNIT 1017 AT END OF TIME STEP    6, STRESS PERIOD   15
1
  HEAD IN LAYER   1 AT END OF TIME STEP   6 IN STRESS PERIOD   15
  ---------------------------------------------------------------------------

                1               2               3               4               5               6               7               8               9              10
 ................................................................................................................................................................
   1      17.6637         17.2329         16.4162         15.8895         15.6162         15.5823         15.7904         16.2605         17.0349         17.4428    
   2      16.5471         15.9345         15.4089         15.0260         14.8076         14.7621         14.8924         15.1960         15.6584         16.2341    
   3      15.0348         14.4382         13.9791         13.6523         13.4559         13.3890         13.4525         13.6475         13.9812         14.4814    
   4      13.0534         12.5342         12.1623         11.9010         11.7331         11.6489         11.6398         11.6924         11.7840         11.8726    
   5      10.2820         10.1715         10.0340         9.90747         9.80944         9.74630         9.71738         9.71617         9.73097         9.74619    
   6      8.06918         8.03360         7.97757         7.91699         7.86384         7.82500         7.80242         7.79374         7.79361         7.79575    
   7      6.10241         6.07998         6.04194         5.99953         5.96393         5.94190         5.93513         5.94042         5.95034         5.95739    
   8      4.31756         4.27923         4.21408         4.14504         4.10009         4.08811         4.11009         4.15913         4.20938         4.23973    
   9      2.76797         2.66562         2.48138         2.27354         2.18362         2.17782         2.25626         2.45274         2.62820         2.72579    
  10      1.70085         1.45084        0.913569         0.00000         0.00000         0.00000         0.00000        0.901073         1.42991         1.67563    
1
  HEAD IN LAYER   2 AT END OF TIME STEP   6 IN STRESS PERIOD   15
  ---------------------------------------------------------------------------

                1               2               3               4               5               6               7               8               9              10
 ................................................................................................................................................................
   1     -9.09904        -9.10843        -9.12475        -9.14456        -9.16501        -9.18401        -9.20044        -9.21458        -9.22804        -9.24361    
   2     -9.09650        -9.08701        -9.35832        -9.67975        -10.0208        -10.2946        -10.2890        -10.0764        -9.79135        -9.32133    
   3     -9.11780        -9.31078        -9.71487        -10.2835        -11.1403        -12.4122        -12.1142        -11.1055        -10.4034        -9.39686    
   4     -9.15181        -9.31465        -9.64808        -10.0792        -10.6427        -11.3264        -11.2458        -10.7503        -10.3297        -9.44915    
   5     -9.19423        -9.22360        -9.38728        -9.58885        -9.80703        -9.98983        -10.0316        -9.96428        -9.84675        -9.47240    
   6     -9.23972        -9.08112        -9.14257        -9.23194        -9.32321        -9.39690        -9.43555        -9.44192        -9.43409        -9.48014    
   7     -9.29108        -9.00688        -9.02052        -9.06353        -9.10714        -9.14286        -9.16574        -9.17650        -9.20128        -9.48611    
   8     -9.35092        -9.05522        -9.06227        -9.09724        -9.12696        -9.14581        -9.15167        -9.14642        -9.16508        -9.49843    
   9     -9.41874        -9.22956        -9.27517        -9.34671        -9.38458        -9.39522        -9.37769        -9.32371        -9.29449        -9.51889    
  10     -9.49077        -9.50874        -9.52615        -9.54152        -9.55218        -9.55816        -9.55943        -9.55596        -9.55036        -9.54413    
1
  HEAD IN LAYER   3 AT END OF TIME STEP   6 IN STRESS PERIOD   15
  ---------------------------------------------------------------------------

                1               2               3               4               5               6               7               8               9              10
 ................................................................................................................................................................
   1     -38.3674        -38.5380        -38.8569        -39.2761        -39.7172        -40.0733        -40.2395        -40.2369        -40.1647        -40.1067    
   2     -38.3357        -38.5974        -39.1121        -39.8494        -40.7235        -41.5033        -41.5868        -41.1870        -40.7792        -40.5445    
   3     -37.9074        -38.2990        -39.1334        -40.5373        -42.7753        -46.3930        -45.5427        -42.8425        -41.3729        -40.7181    
   4     -36.5584        -36.8763        -37.5296        -38.5521        -39.9876        -41.8626        -41.5996        -40.2562        -39.3788        -38.9487    
   5     -34.5665        -34.7428        -35.0835        -35.5571        -36.0939        -36.5504        -36.6428        -36.4604        -36.2446        -36.1128    
   6     -32.4738        -32.5578        -32.7148        -32.9206        -33.1370        -33.3139        -33.4045        -33.4161        -33.3918        -33.3694    
   7     -30.6241        -30.6625        -30.7339        -30.8265        -30.9242        -31.0096        -31.0701        -31.1040        -31.1187        -31.1235    
   8     -29.1771        -29.1951        -29.2291        -29.2738        -29.3223        -29.3678        -29.4051        -29.4319        -29.4487        -29.4569    
   9     -28.1963        -28.2058        -28.2240        -28.2482        -28.2753        -28.3020        -28.3254        -28.3439        -28.3566        -28.3632    
  10     -27.7034        -27.7099        -27.7221        -27.7386        -27.7573        -27.7763        -27.7936        -27.8077        -27.8177        -27.8228    

 HEAD WILL BE SAVED ON UNIT 1022 AT END OF TIME STEP    6, STRESS PERIOD   15


  VOLUME BUDGET FOR ENTIRE MODEL AT END OF TIME STEP    6, STRESS PERIOD  15
  ---------------------------------------------------------------------------------------------------

     CUMULATIVE VOLUME      L**3       RATES FOR THIS TIME STEP      L**3/T          PACKAGE NAME    
     ------------------                 ------------------------                     ----------------

           IN:                                      IN:
           ---                                      ---
              STO-SS =           0.0000                STO-SS =           0.0000     STORAGE                          
      CSUB-CGELASTIC =     5562094.2345        CSUB-CGELASTIC =         423.8550     CSUB                             
        CSUB-ELASTIC =     1612242.2990          CSUB-ELASTIC =           3.6603     CSUB                             
      CSUB-INELASTIC =   106971958.1497        CSUB-INELASTIC =       18493.0263     CSUB                             
      CSUB-WATERCOMP =           0.0000        CSUB-WATERCOMP =           0.0000     CSUB                             
                 WEL =           0.0000                   WEL =           0.0000     WEL_0                            
                RCHA =   108506250.0000                  RCHA =       27000.0000     RCHA_0                           
                 CHD =     4126450.9013                   CHD =         229.2678     CHD_0                            

            TOTAL IN =   226778995.5845              TOTAL IN =       46149.8094

          OUT:                                     OUT:
          ----                                     ----
              STO-SS =           0.0000                STO-SS =           0.0000     STORAGE                          
      CSUB-CGELASTIC =      548112.8185        CSUB-CGELASTIC =           0.0000     CSUB                             
        CSUB-ELASTIC =      244061.3137          CSUB-ELASTIC =           0.0000     CSUB                             
      CSUB-INELASTIC =           0.0000        CSUB-INELASTIC =           0.0000     CSUB                             
      CSUB-WATERCOMP =           0.0000        CSUB-WATERCOMP =           0.0000     CSUB                             
                 WEL =   153405000.0000                   WEL =       30000.0000     WEL_0                            
                RCHA =           0.0000                  RCHA =           0.0000     RCHA_0                           
                 CHD =    72581821.4502                   CHD =       16149.8094     CHD_0                            

           TOTAL OUT =   226778995.5824             TOTAL OUT =       46149.8094

            IN - OUT =       2.0950E-03              IN - OUT =       6.2200E-07

 PERCENT DISCREPANCY =           0.00     PERCENT DISCREPANCY =           0.00




         TIME SUMMARY AT END OF TIME STEP    6 IN STRESS PERIOD   15
                    SECONDS     MINUTES      HOURS       DAYS        YEARS
                    -----------------------------------------------------------
   TIME STEP LENGTH 9.18555E+06 1.53093E+05  2551.5      106.31     0.29107    
 STRESS PERIOD TIME 3.15576E+07 5.25960E+05  8766.0      365.25      1.0000    
         TOTAL TIME 4.41893E+08 7.36488E+06 1.22748E+05  5114.5      14.003    


end timestep


start timestep kper="16" kstp="1" mode="normal"


 OUTPUT CONTROL FOR STRESS PERIOD 16 IS REPEATED USING SETTINGS FROM A PREVIOUS STRESS PERIOD.


 STRESS PERIOD 16 IS TRANSIENT


 REUSING CSUBS FROM LAST STRESS PERIOD

 REUSING WELS FROM LAST STRESS PERIOD

 REUSING RCHS FROM LAST STRESS PERIOD

 REUSING CHDS FROM LAST STRESS PERIOD

end timestep


start timestep kper="16" kstp="2" mode="normal"


end timestep


start timestep kper="16" kstp="3" mode="normal"


end timestep


start timestep kper="16" kstp="4" mode="normal"


end timestep


start timestep kper="16" kstp="5" mode="normal"


end timestep


start timestep kper="16" kstp="6" mode="normal"

 UBDSV1 SAVING  CSUB-CGELASTIC  ON UNIT   1021 AT TIME STEP      6, STRESS PERIOD     16
 UBDSV06 SAVING    CSUB-ELASTIC  IN MODEL CSUB_SUB03A      PACKAGE CSUB_SUB03A     CONNECTED TO MODEL CSUB_SUB03A      PACKAGE CSUB             ON UNIT   1021 AT TIME STEP      6, STRESS PERIOD     16
 UBDSV06 SAVING  CSUB-INELASTIC  IN MODEL CSUB_SUB03A      PACKAGE CSUB_SUB03A     CONNECTED TO MODEL CSUB_SUB03A      PACKAGE CSUB             ON UNIT   1021 AT TIME STEP      6, STRESS PERIOD     16
 UBDSV1 SAVING  CSUB-WATERCOMP  ON UNIT   1021 AT TIME STEP      6, STRESS PERIOD     16

 WEL PACKAGE (WEL_0) FLOW RATES   PERIOD     16   STEP        6
 -----------------------------------------------
   NUMBER   CELLID                    RATE      
 -----------------------------------------------
     1      (3,3,6)              -14000.000     
     2      (3,3,7)              -8000.0000     
     3      (3,4,6)              -5000.0000     
     4      (3,4,7)              -3000.0000     
 -----------------------------------------------




 CSUB-COMPACTION WILL BE SAVED ON UNIT 1017 AT END OF TIME STEP    6, STRESS PERIOD   16
1
  HEAD IN LAYER   1 AT END OF TIME STEP   6 IN STRESS PERIOD   16
  ---------------------------------------------------------------------------

                1               2               3               4               5               6               7               8               9              10
 ................................................................................................................................................................
   1      17.5494         17.1186         16.3018         15.7751         15.5018         15.4677         15.6758         16.1459         16.9203         17.3281    
   2      16.4349         15.8223         15.2965         14.9135         14.6949         14.6494         14.7797         15.0832         15.5456         16.1213    
   3      14.9264         14.3298         13.8706         13.5437         13.3470         13.2800         13.3434         13.5384         13.8722         14.3725    
   4      12.9511         12.4319         12.0599         11.7984         11.6304         11.5461         11.5369         11.5896         11.6812         11.7698    
   5      10.1882         10.0777         9.94002         9.81346         9.71534         9.65210         9.62311         9.62187         9.63667         9.65190    
   6      7.98610         7.95053         7.89453         7.83397         7.78080         7.74191         7.71923         7.71045         7.71023         7.71234    
   7      6.03242         6.01013         5.97233         5.93014         5.89466         5.87259         5.86563         5.87063         5.88028         5.88717    
   8      4.26268         4.22484         4.16054         4.09236         4.04788         4.03588         4.05734         4.10548         4.15486         4.18470    
   9      2.72892         2.62810         2.44666         2.24195         2.15333         2.14753         2.22464         2.41796         2.59060         2.68665    
  10      1.67434         1.42822        0.899317         0.00000         0.00000         0.00000         0.00000        0.886790         1.40724         1.64907    
1
  HEAD IN LAYER   2 AT END OF TIME STEP   6 IN STRESS PERIOD   16
  ---------------------------------------------------------------------------

                1               2               3               4               5               6               7               8               9              10
 ................................................................................................................................................................
   1     -9.53333        -9.54101        -9.55610        -9.57518        -9.59540        -9.61465        -9.63182        -9.64716        -9.66230        -9.67999    
   2     -9.53941        -9.45748        -9.75717        -10.1092        -10.4764        -10.7677        -10.7598        -10.5292        -10.2186        -9.76784    
   3     -9.57096        -9.72629        -10.1633        -10.7720        -11.6762        -12.9975        -12.6895        -11.6373        -10.8922        -9.85473    
   4     -9.61622        -9.76163        -10.1194        -10.5790        -11.1741        -11.8877        -11.8046        -11.2873        -10.8420        -9.91887    
   5     -9.67032        -9.69872        -9.87193        -10.0868        -10.3183        -10.5114        -10.5557        -10.4849        -10.3603        -9.95388    
   6     -9.72739        -9.57505        -9.63888        -9.73401        -9.83112        -9.90941        -9.95047        -9.95737        -9.94971        -9.97291    
   7     -9.78980        -9.51651        -9.52978        -9.57583        -9.62253        -9.66067        -9.68501        -9.69651        -9.72383        -9.98931    
   8     -9.85980        -9.58025        -9.58697        -9.62458        -9.65656        -9.67675        -9.68287        -9.67719        -9.69769        -10.0109    
   9     -9.93663        -9.77103        -9.81957        -9.89583        -9.93630        -9.94768        -9.92896        -9.87155        -9.84044        -10.0394    
  10     -10.0163        -10.0358        -10.0544        -10.0706        -10.0818        -10.0879        -10.0890        -10.0850        -10.0786        -10.0711    
1
  HEAD IN LAYER   3 AT END OF TIME STEP   6 IN STRESS PERIOD   16
  ---------------------------------------------------------------------------

                1               2               3               4               5               6               7               8               9              10
 ................................................................................................................................................................
   1     -39.8103        -39.9809        -40.2999        -40.7193        -41.1606        -41.5168        -41.6831        -41.6806        -41.6085        -41.5504    
   2     -39.7790        -40.0407        -40.5556        -41.2932        -42.1676        -42.9476        -43.0312        -42.6314        -42.2236        -41.9889    
   3     -39.3516        -39.7431        -40.5779        -41.9822        -44.2205        -47.8385        -46.9884        -44.2881        -42.8183        -42.1635    
   4     -38.0035        -38.3215        -38.9750        -39.9979        -41.4336        -43.3089        -43.0461        -41.7027        -40.8252        -40.3949    
   5     -36.0124        -36.1888        -36.5298        -37.0035        -37.5406        -37.9973        -38.0897        -37.9074        -37.6916        -37.5597    
   6     -33.9205        -34.0046        -34.1617        -34.3677        -34.5842        -34.7612        -34.8519        -34.8636        -34.8393        -34.8168    
   7     -32.0716        -32.1100        -32.1815        -32.2742        -32.3720        -32.4575        -32.5180        -32.5519        -32.5667        -32.5715    
   8     -30.6252        -30.6433        -30.6773        -30.7221        -30.7707        -30.8162        -30.8535        -30.8804        -30.8971        -30.9054    
   9     -29.6448        -29.6544        -29.6726        -29.6969        -29.7241        -29.7508        -29.7743        -29.7927        -29.8054        -29.8120    
  10     -29.1521        -29.1586        -29.1709        -29.1874        -29.2061        -29.2251        -29.2425        -29.2566        -29.2666        -29.2717    

 HEAD WILL BE SAVED ON UNIT 1022 AT END OF TIME STEP    6, STRESS PERIOD   16


  VOLUME BUDGET FOR ENTIRE MODEL AT END OF TIME STEP    6, STRESS PERIOD  16
  ---------------------------------------------------------------------------------------------------

     CUMULATIVE VOLUME      L**3       RATES FOR THIS TIME STEP      L**3/T          PACKAGE NAME    
     ------------------                 ------------------------                     ----------------

           IN:                                      IN:
           ---                                      ---
              STO-SS =           0.0000                STO-SS =           0.0000     STORAGE                          
      CSUB-CGELASTIC =     5713655.3465        CSUB-CGELASTIC =         409.1696     CSUB                             
        CSUB-ELASTIC =     1613657.7675          CSUB-ELASTIC =           4.0084     CSUB                             
      CSUB-INELASTIC =   113675383.6149        CSUB-INELASTIC =       18256.7290     CSUB                             
      CSUB-WATERCOMP =           0.0000        CSUB-WATERCOMP =           0.0000     CSUB                             
                 WEL =           0.0000                   WEL =           0.0000     WEL_0                            
                RCHA =   118368000.0000                  RCHA =       27000.0000     RCHA_0                           
                 CHD =     4212958.7173                   CHD =         241.9755     CHD_0                            

            TOTAL IN =   243583655.4461              TOTAL IN =       45911.8824

          OUT:                                     OUT:
          ----                                     ----
              STO-SS =           0.0000                STO-SS =           0.0000     STORAGE                          
      CSUB-CGELASTIC =      548112.8185        CSUB-CGELASTIC =           0.0000     CSUB                             
        CSUB-ELASTIC =      244061.3137          CSUB-ELASTIC =           0.0000     CSUB                             
      CSUB-INELASTIC =           0.0000        CSUB-INELASTIC =           0.0000     CSUB                             
      CSUB-WATERCOMP =           0.0000        CSUB-WATERCOMP =           0.0000     CSUB                             
                 WEL =   164362500.0000                   WEL =       30000.0000     WEL_0                            
                RCHA =           0.0000                  RCHA =           0.0000     RCHA_0                           
                 CHD =    78428981.3115                   CHD =       15911.8824     CHD_0                            

           TOTAL OUT =   243583655.4437             TOTAL OUT =       45911.8824

            IN - OUT =       2.3590E-03              IN - OUT =       6.6833E-07

 PERCENT DISCREPANCY =           0.00     PERCENT DISCREPANCY =           0.00




         TIME SUMMARY AT END OF TIME STEP    6 IN STRESS PERIOD   16
                    SECONDS     MINUTES      HOURS       DAYS        YEARS
                    -----------------------------------------------------------
   TIME STEP LENGTH 9.18555E+06 1.53093E+05  2551.5      106.31     0.29107    
 STRESS PERIOD TIME 3.15576E+07 5.25960E+05  8766.0      365.25      1.0000    
         TOTAL TIME 4.73450E+08 7.89084E+06 1.31514E+05  5479.8      15.003    


end timestep


start timestep kper="17" kstp="1" mode="normal"


 OUTPUT CONTROL FOR STRESS PERIOD 17 IS REPEATED USING SETTINGS FROM A PREVIOUS STRESS PERIOD.


 STRESS PERIOD 17 IS TRANSIENT


 REUSING CSUBS FROM LAST STRESS PERIOD

 REUSING WELS FROM LAST STRESS PERIOD

 REUSING RCHS FROM LAST STRESS PERIOD

 REUSING CHDS FROM LAST STRESS PERIOD

end timestep


start timestep kper="17" kstp="2" mode="normal"


end timestep


start timestep kper="17" kstp="3" mode="normal"


end timestep


start timestep kper="17" kstp="4" mode="normal"


end timestep


start timestep kper="17" kstp="5" mode="normal"


end timestep


start timestep kper="17" kstp="6" mode="normal"

 UBDSV1 SAVING  CSUB-CGELASTIC  ON UNIT   1021 AT TIME STEP      6, STRESS PERIOD     17
 UBDSV06 SAVING    CSUB-ELASTIC  IN MODEL CSUB_SUB03A      PACKAGE CSUB_SUB03A     CONNECTED TO MODEL CSUB_SUB03A      PACKAGE CSUB             ON UNIT   1021 AT TIME STEP      6, STRESS PERIOD     17
 UBDSV06 SAVING  CSUB-INELASTIC  IN MODEL CSUB_SUB03A      PACKAGE CSUB_SUB03A     CONNECTED TO MODEL CSUB_SUB03A      PACKAGE CSUB             ON UNIT   1021 AT TIME STEP      6, STRESS PERIOD     17
 UBDSV1 SAVING  CSUB-WATERCOMP  ON UNIT   1021 AT TIME STEP      6, STRESS PERIOD     17

 WEL PACKAGE (WEL_0) FLOW RATES   PERIOD     17   STEP        6
 -----------------------------------------------
   NUMBER   CELLID                    RATE      
 -----------------------------------------------
     1      (3,3,6)              -14000.000     
     2      (3,3,7)              -8000.0000     
     3      (3,4,6)              -5000.0000     
     4      (3,4,7)              -3000.0000     
 -----------------------------------------------




 CSUB-COMPACTION WILL BE SAVED ON UNIT 1017 AT END OF TIME STEP    6, STRESS PERIOD   17
1
  HEAD IN LAYER   1 AT END OF TIME STEP   6 IN STRESS PERIOD   17
  ---------------------------------------------------------------------------

                1               2               3               4               5               6               7               8               9              10
 ................................................................................................................................................................
   1      17.4257         16.9948         16.1780         15.6512         15.3778         15.3437         15.5518         16.0218         16.7962         17.2040    
   2      16.3133         15.7007         15.1749         14.7918         14.5731         14.5275         14.6577         14.9612         15.4237         15.9994    
   3      14.8093         14.2127         13.7534         13.4263         13.2294         13.1623         13.2257         13.4207         13.7546         14.2549    
   4      12.8408         12.3215         11.9494         11.6878         11.5196         11.4352         11.4260         11.4786         11.5703         11.6590    
   5      10.0870         9.97649         9.83881         9.71218         9.61399         9.55067         9.52162         9.52034         9.53513         9.55038    
   6      7.89670         7.86116         7.80520         7.74466         7.69149         7.65255         7.62978         7.62090         7.62060         7.62267    
   7      5.95725         5.93511         5.89756         5.85562         5.82028         5.79817         5.79101         5.79572         5.80508         5.81182    
   8      4.20384         4.16653         4.10314         4.03589         3.99192         3.97990         4.00080         4.04798         4.09644         4.12574    
   9      2.68716         2.58798         2.40951         2.20817         2.12093         2.11511         2.19082         2.38076         2.55041         2.64480    
  10      1.64606         1.40409        0.884110         0.00000         0.00000         0.00000         0.00000        0.871557         1.38306         1.62074    
1
  HEAD IN LAYER   2 AT END OF TIME STEP   6 IN STRESS PERIOD   17
  ---------------------------------------------------------------------------

                1               2               3               4               5               6               7               8               9              10
 ................................................................................................................................................................
   1     -10.0196        -10.0262        -10.0405        -10.0591        -10.0792        -10.0987        -10.1163        -10.1324        -10.1486        -10.1677    
   2     -10.0312        -9.88303        -10.2054        -10.5836        -10.9734        -11.2798        -11.2701        -11.0240        -10.6921        -10.2621    
   3     -10.0693        -10.1895        -10.6539        -11.2973        -12.2425        -13.6058        -13.2893        -12.1999        -11.4176        -10.3564    
   4     -10.1219        -10.2512        -10.6295        -11.1137        -11.7362        -12.4753        -12.3902        -11.8542        -11.3869        -10.4282    
   5     -10.1836        -10.2116        -10.3930        -10.6194        -10.8625        -11.0644        -11.1110        -11.0372        -10.9058        -10.4709    
   6     -10.2482        -10.1033        -10.1693        -10.2694        -10.3716        -10.4539        -10.4971        -10.5044        -10.4964        -10.4972    
   7     -10.3179        -10.0573        -10.0706        -10.1192        -10.1686        -10.2088        -10.2344        -10.2466        -10.2757        -10.5204    
   8     -10.3945        -10.1332        -10.1400        -10.1799        -10.2138        -10.2351        -10.2415        -10.2355        -10.2572        -10.5481    
   9     -10.4772        -10.3368        -10.3882        -10.4683        -10.5109        -10.5229        -10.5033        -10.4432        -10.4101        -10.5817    
  10     -10.5618        -10.5823        -10.6016        -10.6184        -10.6298        -10.6361        -10.6371        -10.6328        -10.6259        -10.6176    
1
  HEAD IN LAYER   3 AT END OF TIME STEP   6 IN STRESS PERIOD   17
  ---------------------------------------------------------------------------

                1               2               3               4               5               6               7               8               9              10
 ................................................................................................................................................................
   1     -41.1999        -41.3706        -41.6897        -42.1092        -42.5506        -42.9070        -43.0734        -43.0709        -42.9988        -42.9408    
   2     -41.1690        -41.4307        -41.9457        -42.6835        -43.5582        -44.3384        -44.4222        -44.0224        -43.6145        -43.3798    
   3     -40.7424        -41.1341        -41.9690        -43.3736        -45.6123        -49.2306        -48.3805        -45.6802        -44.2103        -43.5554    
   4     -39.3954        -39.7135        -40.3672        -41.3903        -42.8264        -44.7019        -44.4392        -43.0957        -42.2182        -41.7878    
   5     -37.4054        -37.5818        -37.9229        -38.3968        -38.9341        -39.3910        -39.4835        -39.3012        -39.0854        -38.9534    
   6     -35.3144        -35.3986        -35.5558        -35.7619        -35.9785        -36.1556        -36.2464        -36.2581        -36.2338        -36.2113    
   7     -33.4663        -33.5048        -33.5764        -33.6692        -33.7670        -33.8526        -33.9132        -33.9472        -33.9619        -33.9667    
   8     -32.0207        -32.0388        -32.0729        -32.1178        -32.1664        -32.2120        -32.2494        -32.2762        -32.2929        -32.3011    
   9     -31.0408        -31.0504        -31.0687        -31.0931        -31.1203        -31.1470        -31.1705        -31.1890        -31.2016        -31.2082    
  10     -30.5482        -30.5548        -30.5671        -30.5836        -30.6025        -30.6215        -30.6388        -30.6530        -30.6629        -30.6680    

 HEAD WILL BE SAVED ON UNIT 1022 AT END OF TIME STEP    6, STRESS PERIOD   17


  VOLUME BUDGET FOR ENTIRE MODEL AT END OF TIME STEP    6, STRESS PERIOD  17
  ---------------------------------------------------------------------------------------------------

     CUMULATIVE VOLUME      L**3       RATES FOR THIS TIME STEP      L**3/T          PACKAGE NAME    
     ------------------                 ------------------------                     ----------------

           IN:                                      IN:
           ---                                      ---
              STO-SS =           0.0000                STO-SS =           0.0000     STORAGE                          
      CSUB-CGELASTIC =     5860123.8279        CSUB-CGELASTIC =         395.6999     CSUB                             
        CSUB-ELASTIC =     1615183.4767          CSUB-ELASTIC =           4.2811     CSUB                             
      CSUB-INELASTIC =   120288475.6192        CSUB-INELASTIC =       18002.5909     CSUB                             
      CSUB-WATERCOMP =           0.0000        CSUB-WATERCOMP =           0.0000     CSUB                             
                 WEL =           0.0000                   WEL =           0.0000     WEL_0                            
                RCHA =   128229750.0000                  RCHA =       27000.0000     RCHA_0                           
                 CHD =     4304207.7425                   CHD =         255.1282     CHD_0                            

            TOTAL IN =   260297740.6664              TOTAL IN =       45657.7001

          OUT:                                     OUT:
          ----                                     ----
              STO-SS =           0.0000                STO-SS =           0.0000     STORAGE                          
      CSUB-CGELASTIC =      548112.8185        CSUB-CGELASTIC =           0.0000     CSUB                             
        CSUB-ELASTIC =      244061.3137          CSUB-ELASTIC =           0.0000     CSUB                             
      CSUB-INELASTIC =           0.0000        CSUB-INELASTIC =           0.0000     CSUB                             
      CSUB-WATERCOMP =           0.0000        CSUB-WATERCOMP =           0.0000     CSUB                             
                 WEL =   175320000.0000                   WEL =       30000.0000     WEL_0                            
                RCHA =           0.0000                  RCHA =           0.0000     RCHA_0                           
                 CHD =    84185566.5315                   CHD =       15657.7001     CHD_0                            

           TOTAL OUT =   260297740.6637             TOTAL OUT =       45657.7001

            IN - OUT =       2.6455E-03              IN - OUT =       7.8615E-07

 PERCENT DISCREPANCY =           0.00     PERCENT DISCREPANCY =           0.00




         TIME SUMMARY AT END OF TIME STEP    6 IN STRESS PERIOD   17
                    SECONDS     MINUTES      HOURS       DAYS        YEARS
                    -----------------------------------------------------------
   TIME STEP LENGTH 9.18555E+06 1.53093E+05  2551.5      106.31     0.29107    
 STRESS PERIOD TIME 3.15576E+07 5.25960E+05  8766.0      365.25      1.0000    
         TOTAL TIME 5.05008E+08 8.41680E+06 1.40280E+05  5845.0      16.003    


end timestep


start timestep kper="18" kstp="1" mode="normal"


 OUTPUT CONTROL FOR STRESS PERIOD 18 IS REPEATED USING SETTINGS FROM A PREVIOUS STRESS PERIOD.


 STRESS PERIOD 18 IS TRANSIENT


 REUSING CSUBS FROM LAST STRESS PERIOD

 REUSING WELS FROM LAST STRESS PERIOD

 REUSING RCHS FROM LAST STRESS PERIOD

 REUSING CHDS FROM LAST STRESS PERIOD

end timestep


start timestep kper="18" kstp="2" mode="normal"


end timestep


start timestep kper="18" kstp="3" mode="normal"


end timestep


start timestep kper="18" kstp="4" mode="normal"


end timestep


start timestep kper="18" kstp="5" mode="normal"


end timestep


start timestep kper="18" kstp="6" mode="normal"

 UBDSV1 SAVING  CSUB-CGELASTIC  ON UNIT   1021 AT TIME STEP      6, STRESS PERIOD     18
 UBDSV06 SAVING    CSUB-ELASTIC  IN MODEL CSUB_SUB03A      PACKAGE CSUB_SUB03A     CONNECTED TO MODEL CSUB_SUB03A      PACKAGE CSUB             ON UNIT   1021 AT TIME STEP      6, STRESS PERIOD     18
 UBDSV06 SAVING  CSUB-INELASTIC  IN MODEL CSUB_SUB03A      PACKAGE CSUB_SUB03A     CONNECTED TO MODEL CSUB_SUB03A      PACKAGE CSUB             ON UNIT   1021 AT TIME STEP      6, STRESS PERIOD     18
 UBDSV1 SAVING  CSUB-WATERCOMP  ON UNIT   1021 AT TIME STEP      6, STRESS PERIOD     18

 WEL PACKAGE (WEL_0) FLOW RATES   PERIOD     18   STEP        6
 -----------------------------------------------
   NUMBER   CELLID                    RATE      
 -----------------------------------------------
     1      (3,3,6)              -14000.000     
     2      (3,3,7)              -8000.0000     
     3      (3,4,6)              -5000.0000     
     4      (3,4,7)              -3000.0000     
 -----------------------------------------------




 CSUB-COMPACTION WILL BE SAVED ON UNIT 1017 AT END OF TIME STEP    6, STRESS PERIOD   18
1
  HEAD IN LAYER   1 AT END OF TIME STEP   6 IN STRESS PERIOD   18
  ---------------------------------------------------------------------------

                1               2               3               4               5               6               7               8               9              10
 ................................................................................................................................................................
   1      17.2945         16.8637         16.0468         15.5200         15.2465         15.2124         15.4204         15.8904         16.6648         17.0726    
   2      16.1846         15.5720         15.0462         14.6629         14.4442         14.3984         14.5286         14.8321         15.2946         15.8703    
   3      14.6853         14.0887         13.6293         13.3021         13.1051         13.0378         13.1012         13.2963         13.6301         14.1305    
   4      12.7241         12.2047         11.8326         11.5709         11.4026         11.3181         11.3088         11.3615         11.4531         11.5419    
   5      9.98017         9.86965         9.73194         9.60526         9.50700         9.44362         9.41452         9.41320         9.42798         9.44323    
   6      7.80239         7.76688         7.71098         7.65049         7.59732         7.55833         7.53548         7.52649         7.52610         7.52814    
   7      5.87805         5.85607         5.81880         5.77712         5.74193         5.71980         5.71244         5.71683         5.72590         5.73246    
   8      4.14195         4.10520         4.04276         3.97648         3.93306         3.92102         3.94134         3.98752         4.03500         4.06374    
   9      2.64329         2.54584         2.37050         2.17267         2.08689         2.08107         2.15529         2.34169         2.50820         2.60087    
  10      1.61640         1.37878        0.868160         0.00000         0.00000         0.00000         0.00000        0.855586         1.35772         1.59103    
1
  HEAD IN LAYER   2 AT END OF TIME STEP   6 IN STRESS PERIOD   18
  ---------------------------------------------------------------------------

                1               2               3               4               5               6               7               8               9              10
 ................................................................................................................................................................
   1     -10.5453        -10.5512        -10.5651        -10.5834        -10.6034        -10.6230        -10.6409        -10.6576        -10.6745        -10.6944    
   2     -10.5602        -10.3532        -10.6935        -11.0944        -11.5036        -11.8230        -11.8116        -11.5522        -11.2027        -10.7930    
   3     -10.6025        -10.6909        -11.1781        -11.8516        -12.8321        -14.2312        -13.9077        -12.7864        -11.9718        -10.8919    
   4     -10.6597        -10.7746        -11.1703        -11.6757        -12.3219        -13.0830        -12.9962        -12.4441        -11.9573        -10.9686    
   5     -10.7261        -10.7542        -10.9427        -11.1790        -11.4322        -11.6418        -11.6903        -11.6139        -11.4761        -11.0161    
   6     -10.7955        -10.6582        -10.7264        -10.8308        -10.9373        -11.0231        -11.0681        -11.0758        -11.0670        -11.0469    
   7     -10.8695        -10.6220        -10.6356        -10.6864        -10.7381        -10.7802        -10.8069        -10.8197        -10.8498        -11.0742    
   8     -10.9501        -10.7073        -10.7145        -10.7562        -10.7917        -10.8141        -10.8207        -10.8146        -10.8367        -11.1055    
   9     -11.0363        -10.9204        -10.9746        -11.0577        -11.1021        -11.1147        -11.0943        -11.0322        -10.9970        -11.1420    
  10     -11.1237        -11.1447        -11.1645        -11.1815        -11.1931        -11.1995        -11.2005        -11.1961        -11.1888        -11.1802    
1
  HEAD IN LAYER   3 AT END OF TIME STEP   6 IN STRESS PERIOD   18
  ---------------------------------------------------------------------------

                1               2               3               4               5               6               7               8               9              10
 ................................................................................................................................................................
   1     -42.5416        -42.7123        -43.0315        -43.4510        -43.8926        -44.2491        -44.4156        -44.4132        -44.3411        -44.2831    
   2     -42.5110        -42.7727        -43.2878        -44.0258        -44.9007        -45.6811        -45.7649        -45.3652        -44.9573        -44.7226    
   3     -42.0852        -42.4769        -43.3120        -44.7168        -46.9558        -50.5743        -49.7244        -47.0240        -45.5541        -44.8991    
   4     -40.7391        -41.0572        -41.7111        -42.7345        -44.1708        -46.0465        -45.7839        -44.4404        -43.5628        -43.1324    
   5     -38.7500        -38.9266        -39.2678        -39.7419        -40.2793        -40.7363        -40.8289        -40.6466        -40.4308        -40.2987    
   6     -36.6600        -36.7442        -36.9015        -37.1077        -37.3245        -37.5017        -37.5925        -37.6043        -37.5799        -37.5574    
   7     -34.8127        -34.8513        -34.9229        -35.0158        -35.1137        -35.1994        -35.2600        -35.2940        -35.3087        -35.3134    
   8     -33.3677        -33.3859        -33.4201        -33.4650        -33.5137        -33.5594        -33.5967        -33.6236        -33.6403        -33.6484    
   9     -32.3883        -32.3980        -32.4163        -32.4408        -32.4681        -32.4948        -32.5183        -32.5368        -32.5494        -32.5559    
  10     -31.8959        -31.9025        -31.9149        -31.9314        -31.9503        -31.9693        -31.9867        -32.0008        -32.0108        -32.0159    

 HEAD WILL BE SAVED ON UNIT 1022 AT END OF TIME STEP    6, STRESS PERIOD   18


  VOLUME BUDGET FOR ENTIRE MODEL AT END OF TIME STEP    6, STRESS PERIOD  18
  ---------------------------------------------------------------------------------------------------

     CUMULATIVE VOLUME      L**3       RATES FOR THIS TIME STEP      L**3/T          PACKAGE NAME    
     ------------------                 ------------------------                     ----------------

           IN:                                      IN:
           ---                                      ---
              STO-SS =           0.0000                STO-SS =           0.0000     STORAGE                          
      CSUB-CGELASTIC =     6001906.9475        CSUB-CGELASTIC =         383.2814     CSUB                             
        CSUB-ELASTIC =     1616794.7823          CSUB-ELASTIC =           4.4913     CSUB                             
      CSUB-INELASTIC =   126805585.5896        CSUB-INELASTIC =       17734.4892     CSUB                             
      CSUB-WATERCOMP =           0.0000        CSUB-WATERCOMP =           0.0000     CSUB                             
                 WEL =           0.0000                   WEL =           0.0000     WEL_0                            
                RCHA =   138091500.0000                  RCHA =       27000.0000     RCHA_0                           
                 CHD =     4400343.1481                   CHD =         268.6469     CHD_0                            

            TOTAL IN =   276916130.4675              TOTAL IN =       45390.9088

          OUT:                                     OUT:
          ----                                     ----
              STO-SS =           0.0000                STO-SS =           0.0000     STORAGE                          
      CSUB-CGELASTIC =      548112.8185        CSUB-CGELASTIC =           0.0000     CSUB                             
        CSUB-ELASTIC =      244061.3137          CSUB-ELASTIC =           0.0000     CSUB                             
      CSUB-INELASTIC =           0.0000        CSUB-INELASTIC =           0.0000     CSUB                             
      CSUB-WATERCOMP =           0.0000        CSUB-WATERCOMP =           0.0000     CSUB                             
                 WEL =   186277500.0000                   WEL =       30000.0000     WEL_0                            
                RCHA =           0.0000                  RCHA =           0.0000     RCHA_0                           
                 CHD =    89846456.3323                   CHD =       15390.9088     CHD_0                            

           TOTAL OUT =   276916130.4645             TOTAL OUT =       45390.9088

            IN - OUT =       2.9830E-03              IN - OUT =       7.3450E-07

 PERCENT DISCREPANCY =           0.00     PERCENT DISCREPANCY =           0.00




         TIME SUMMARY AT END OF TIME STEP    6 IN STRESS PERIOD   18
                    SECONDS     MINUTES      HOURS       DAYS        YEARS
                    -----------------------------------------------------------
   TIME STEP LENGTH 9.18555E+06 1.53093E+05  2551.5      106.31     0.29107    
 STRESS PERIOD TIME 3.15576E+07 5.25960E+05  8766.0      365.25      1.0000    
         TOTAL TIME 5.36566E+08 8.94276E+06 1.49046E+05  6210.2      17.003    


end timestep


start timestep kper="19" kstp="1" mode="normal"


 OUTPUT CONTROL FOR STRESS PERIOD 19 IS REPEATED USING SETTINGS FROM A PREVIOUS STRESS PERIOD.


 STRESS PERIOD 19 IS TRANSIENT


 REUSING CSUBS FROM LAST STRESS PERIOD

 REUSING WELS FROM LAST STRESS PERIOD

 REUSING RCHS FROM LAST STRESS PERIOD

 REUSING CHDS FROM LAST STRESS PERIOD

end timestep


start timestep kper="19" kstp="2" mode="normal"


end timestep


start timestep kper="19" kstp="3" mode="normal"


end timestep


start timestep kper="19" kstp="4" mode="normal"


end timestep


start timestep kper="19" kstp="5" mode="normal"


end timestep


start timestep kper="19" kstp="6" mode="normal"

 UBDSV1 SAVING  CSUB-CGELASTIC  ON UNIT   1021 AT TIME STEP      6, STRESS PERIOD     19
 UBDSV06 SAVING    CSUB-ELASTIC  IN MODEL CSUB_SUB03A      PACKAGE CSUB_SUB03A     CONNECTED TO MODEL CSUB_SUB03A      PACKAGE CSUB             ON UNIT   1021 AT TIME STEP      6, STRESS PERIOD     19
 UBDSV06 SAVING  CSUB-INELASTIC  IN MODEL CSUB_SUB03A      PACKAGE CSUB_SUB03A     CONNECTED TO MODEL CSUB_SUB03A      PACKAGE CSUB             ON UNIT   1021 AT TIME STEP      6, STRESS PERIOD     19
 UBDSV1 SAVING  CSUB-WATERCOMP  ON UNIT   1021 AT TIME STEP      6, STRESS PERIOD     19

 WEL PACKAGE (WEL_0) FLOW RATES   PERIOD     19   STEP        6
 -----------------------------------------------
   NUMBER   CELLID                    RATE      
 -----------------------------------------------
     1      (3,3,6)              -14000.000     
     2      (3,3,7)              -8000.0000     
     3      (3,4,6)              -5000.0000     
     4      (3,4,7)              -3000.0000     
 -----------------------------------------------




 CSUB-COMPACTION WILL BE SAVED ON UNIT 1017 AT END OF TIME STEP    6, STRESS PERIOD   19
1
  HEAD IN LAYER   1 AT END OF TIME STEP   6 IN STRESS PERIOD   19
  ---------------------------------------------------------------------------

                1               2               3               4               5               6               7               8               9              10
 ................................................................................................................................................................
   1      17.1578         16.7269         15.9100         15.3832         15.1097         15.0755         15.2835         15.7534         16.5278         16.9356    
   2      16.0504         15.4378         14.9119         14.5286         14.3097         14.2639         14.3941         14.6976         15.1601         15.7358    
   3      14.5561         13.9595         13.5001         13.1727         12.9756         12.9083         12.9716         13.1667         13.5006         14.0009    
   4      12.6025         12.0832         11.7110         11.4492         11.2808         11.1962         11.1869         11.2396         11.3313         11.4201    
   5      9.86902         9.75849         9.62076         9.49404         9.39573         9.33229         9.30314         9.30179         9.31655         9.33182    
   6      7.70435         7.66888         7.61303         7.55259         7.49944         7.46042         7.43748         7.42839         7.42791         7.42991    
   7      5.79580         5.77399         5.73699         5.69561         5.66057         5.63841         5.63085         5.63492         5.64368         5.65008    
   8      4.07773         4.04156         3.98010         3.91484         3.87198         3.85993         3.87966         3.92480         3.97128         3.99943    
   9      2.59782         2.50216         2.33006         2.13588         2.05162         2.04578         2.11848         2.30121         2.46447         2.55534    
  10      1.58569         1.35257        0.851646         0.00000         0.00000         0.00000         0.00000        0.839054         1.33148         1.56028    
1
  HEAD IN LAYER   2 AT END OF TIME STEP   6 IN STRESS PERIOD   19
  ---------------------------------------------------------------------------

                1               2               3               4               5               6               7               8               9              10
 ................................................................................................................................................................
   1     -11.1005        -11.1060        -11.1196        -11.1378        -11.1578        -11.1775        -11.1956        -11.2126        -11.2299        -11.2504    
   2     -11.1174        -10.8591        -11.2136        -11.6338        -12.0598        -12.3903        -12.3776        -12.1068        -11.7427        -11.3515    
   3     -11.1621        -11.2228        -11.7289        -12.4283        -13.4393        -14.8689        -14.5395        -13.3910        -12.5485        -11.4533    
   4     -11.2219        -11.3247        -11.7349        -12.2588        -12.9254        -13.7052        -13.6172        -13.0512        -12.5471        -11.5328    
   5     -11.2911        -11.3197        -11.5144        -11.7593        -12.0212        -12.2375        -12.2876        -12.2089        -12.0653        -11.5829    
   6     -11.3629        -11.2334        -11.3036        -11.4117        -11.5221        -11.6108        -11.6574        -11.6656        -11.6557        -11.6162    
   7     -11.4393        -11.2046        -11.2187        -11.2715        -11.3251        -11.3688        -11.3965        -11.4099        -11.4404        -11.6456    
   8     -11.5219        -11.2966        -11.3046        -11.3478        -11.3847        -11.4079        -11.4149        -11.4087        -11.4308        -11.6786    
   9     -11.6097        -11.5166        -11.5734        -11.6589        -11.7047        -11.7178        -11.6969        -11.6332        -11.5959        -11.7164    
  10     -11.6984        -11.7197        -11.7396        -11.7567        -11.7684        -11.7748        -11.7759        -11.7715        -11.7642        -11.7554    
1
  HEAD IN LAYER   3 AT END OF TIME STEP   6 IN STRESS PERIOD   19
  ---------------------------------------------------------------------------

                1               2               3               4               5               6               7               8               9              10
 ................................................................................................................................................................
   1     -43.8395        -44.0103        -44.3295        -44.7492        -45.1909        -45.5475        -45.7140        -45.7116        -45.6396        -45.5816    
   2     -43.8092        -44.0709        -44.5861        -45.3243        -46.1993        -46.9799        -47.0638        -46.6640        -46.2561        -46.0215    
   3     -43.3841        -43.7758        -44.6110        -46.0161        -48.2553        -51.8741        -51.0241        -48.3237        -46.8537        -46.1987    
   4     -42.0388        -42.3569        -43.0110        -44.0346        -45.4711        -47.3469        -47.0844        -45.7409        -44.8632        -44.4327    
   5     -40.0505        -40.2271        -40.5684        -41.0427        -41.5802        -42.0374        -42.1301        -41.9478        -41.7319        -41.5998    
   6     -37.9613        -38.0455        -38.2029        -38.4092        -38.6261        -38.8034        -38.8943        -38.9060        -38.8816        -38.8591    
   7     -36.1147        -36.1533        -36.2250        -36.3180        -36.4159        -36.5016        -36.5623        -36.5963        -36.6110        -36.6157    
   8     -34.6702        -34.6885        -34.7227        -34.7677        -34.8165        -34.8621        -34.8995        -34.9264        -34.9431        -34.9512    
   9     -33.6912        -33.7009        -33.7193        -33.7438        -33.7711        -33.7979        -33.8214        -33.8398        -33.8524        -33.8589    
  10     -33.1989        -33.2055        -33.2179        -33.2345        -33.2534        -33.2724        -33.2898        -33.3039        -33.3139        -33.3190    

 HEAD WILL BE SAVED ON UNIT 1022 AT END OF TIME STEP    6, STRESS PERIOD   19


  VOLUME BUDGET FOR ENTIRE MODEL AT END OF TIME STEP    6, STRESS PERIOD  19
  ---------------------------------------------------------------------------------------------------

     CUMULATIVE VOLUME      L**3       RATES FOR THIS TIME STEP      L**3/T          PACKAGE NAME    
     ------------------                 ------------------------                     ----------------

           IN:                                      IN:
           ---                                      ---
              STO-SS =           0.0000                STO-SS =           0.0000     STORAGE                          
      CSUB-CGELASTIC =     6139357.2876        CSUB-CGELASTIC =         371.7738     CSUB                             
        CSUB-ELASTIC =     1618471.2498          CSUB-ELASTIC =           4.6497     CSUB                             
      CSUB-INELASTIC =   133222343.2998        CSUB-INELASTIC =       17455.6846     CSUB                             
      CSUB-WATERCOMP =           0.0000        CSUB-WATERCOMP =           0.0000     CSUB                             
                 WEL =           0.0000                   WEL =           0.0000     WEL_0                            
                RCHA =   147953250.0000                  RCHA =       27000.0000     RCHA_0                           
                 CHD =     4501481.7526                   CHD =         282.4550     CHD_0                            

            TOTAL IN =   293434903.5897              TOTAL IN =       45114.5631

          OUT:                                     OUT:
          ----                                     ----
              STO-SS =           0.0000                STO-SS =           0.0000     STORAGE                          
      CSUB-CGELASTIC =      548112.8185        CSUB-CGELASTIC =           0.0000     CSUB                             
        CSUB-ELASTIC =      244061.3137          CSUB-ELASTIC =           0.0000     CSUB                             
      CSUB-INELASTIC =           0.0000        CSUB-INELASTIC =           0.0000     CSUB                             
      CSUB-WATERCOMP =           0.0000        CSUB-WATERCOMP =           0.0000     CSUB                             
                 WEL =   197235000.0000                   WEL =       30000.0000     WEL_0                            
                RCHA =           0.0000                  RCHA =           0.0000     RCHA_0                           
                 CHD =    95407729.4543                   CHD =       15114.5631     CHD_0                            

           TOTAL OUT =   293434903.5865             TOTAL OUT =       45114.5631

            IN - OUT =       3.2824E-03              IN - OUT =       6.9941E-07

 PERCENT DISCREPANCY =           0.00     PERCENT DISCREPANCY =           0.00




         TIME SUMMARY AT END OF TIME STEP    6 IN STRESS PERIOD   19
                    SECONDS     MINUTES      HOURS       DAYS        YEARS
                    -----------------------------------------------------------
   TIME STEP LENGTH 9.18555E+06 1.53093E+05  2551.5      106.31     0.29107    
 STRESS PERIOD TIME 3.15576E+07 5.25960E+05  8766.0      365.25      1.0000    
         TOTAL TIME 5.68123E+08 9.46872E+06 1.57812E+05  6575.5      18.003    


end timestep


start timestep kper="20" kstp="1" mode="normal"


 OUTPUT CONTROL FOR STRESS PERIOD 20 IS REPEATED USING SETTINGS FROM A PREVIOUS STRESS PERIOD.


 STRESS PERIOD 20 IS TRANSIENT


 REUSING CSUBS FROM LAST STRESS PERIOD

 REUSING WELS FROM LAST STRESS PERIOD

 REUSING RCHS FROM LAST STRESS PERIOD

 REUSING CHDS FROM LAST STRESS PERIOD

end timestep


start timestep kper="20" kstp="2" mode="normal"


end timestep


start timestep kper="20" kstp="3" mode="normal"


end timestep


start timestep kper="20" kstp="4" mode="normal"


end timestep


start timestep kper="20" kstp="5" mode="normal"


end timestep


start timestep kper="20" kstp="6" mode="normal"

 UBDSV1 SAVING  CSUB-CGELASTIC  ON UNIT   1021 AT TIME STEP      6, STRESS PERIOD     20
 UBDSV06 SAVING    CSUB-ELASTIC  IN MODEL CSUB_SUB03A      PACKAGE CSUB_SUB03A     CONNECTED TO MODEL CSUB_SUB03A      PACKAGE CSUB             ON UNIT   1021 AT TIME STEP      6, STRESS PERIOD     20
 UBDSV06 SAVING  CSUB-INELASTIC  IN MODEL CSUB_SUB03A      PACKAGE CSUB_SUB03A     CONNECTED TO MODEL CSUB_SUB03A      PACKAGE CSUB             ON UNIT   1021 AT TIME STEP      6, STRESS PERIOD     20
 UBDSV1 SAVING  CSUB-WATERCOMP  ON UNIT   1021 AT TIME STEP      6, STRESS PERIOD     20

 WEL PACKAGE (WEL_0) FLOW RATES   PERIOD     20   STEP        6
 -----------------------------------------------
   NUMBER   CELLID                    RATE      
 -----------------------------------------------
     1      (3,3,6)              -14000.000     
     2      (3,3,7)              -8000.0000     
     3      (3,4,6)              -5000.0000     
     4      (3,4,7)              -3000.0000     
 -----------------------------------------------




 CSUB-COMPACTION WILL BE SAVED ON UNIT 1017 AT END OF TIME STEP    6, STRESS PERIOD   20
1
  HEAD IN LAYER   1 AT END OF TIME STEP   6 IN STRESS PERIOD   20
  ---------------------------------------------------------------------------

                1               2               3               4               5               6               7               8               9              10
 ................................................................................................................................................................
   1      17.0168         16.5860         15.7691         15.2422         14.9686         14.9344         15.1423         15.6123         16.3866         16.7945    
   2      15.9121         15.2995         14.7736         14.3902         14.1713         14.1254         14.2555         14.5591         15.0215         15.5972    
   3      14.4231         13.8264         13.3669         13.0395         12.8423         12.7749         12.8382         13.0333         13.3672         13.8676    
   4      12.4774         11.9581         11.5858         11.3240         11.1555         11.0708         11.0615         11.1142         11.2059         11.2947    
   5      9.75466         9.64413         9.50638         9.37964         9.28129         9.21781         9.18861         9.18722         9.20197         9.21723    
   6      7.60356         7.56812         7.51234         7.45196         7.39883         7.35978         7.33676         7.32757         7.32699         7.32895    
   7      5.71129         5.68965         5.65295         5.61186         5.57700         5.55482         5.54704         5.55079         5.55924         5.56545    
   8      4.01179         3.97622         3.91579         3.85156         3.80929         3.79722         3.81635         3.86043         3.90587         3.93342    
   9      2.55117         2.45735         2.28858         2.09815         2.01543         2.00959         2.08073         2.25970         2.41962         2.50865    
  10      1.55420         1.32570        0.834718         0.00000         0.00000         0.00000         0.00000        0.822112         1.30459         1.52877    
1
  HEAD IN LAYER   2 AT END OF TIME STEP   6 IN STRESS PERIOD   20
  ---------------------------------------------------------------------------

                1               2               3               4               5               6               7               8               9              10
 ................................................................................................................................................................
   1     -11.6775        -11.6828        -11.6963        -11.7144        -11.7344        -11.7542        -11.7725        -11.7896        -11.8072        -11.8280    
   2     -11.6953        -11.3932        -11.7589        -12.1957        -12.6361        -12.9762        -12.9624        -12.6818        -12.3056        -11.9304    
   3     -11.7411        -11.7783        -12.3001        -13.0219        -14.0592        -15.5148        -15.1806        -14.0087        -13.1420        -12.0337    
   4     -11.8022        -11.8951        -12.3176        -12.8574        -13.5418        -14.3376        -14.2485        -13.6706        -13.1513        -12.1147    
   5     -11.8725        -11.9026        -12.1025        -12.3550        -12.6244        -12.8464        -12.8981        -12.8174        -12.6682        -12.1660    
   6     -11.9455        -11.8235        -11.8957        -12.0070        -12.1207        -12.2121        -12.2600        -12.2685        -12.2572        -12.2002    
   7     -12.0227        -11.8000        -11.8148        -11.8692        -11.9246        -11.9696        -11.9982        -12.0121        -12.0426        -12.2302    
   8     -12.1059        -11.8965        -11.9055        -11.9499        -11.9880        -12.0120        -12.0192        -12.0130        -12.0348        -12.2635    
   9     -12.1940        -12.1208        -12.1802        -12.2674        -12.3144        -12.3279        -12.3067        -12.2419        -12.2025        -12.3013    
  10     -12.2828        -12.3041        -12.3240        -12.3410        -12.3528        -12.3592        -12.3603        -12.3561        -12.3489        -12.3402    
1
  HEAD IN LAYER   3 AT END OF TIME STEP   6 IN STRESS PERIOD   20
  ---------------------------------------------------------------------------

                1               2               3               4               5               6               7               8               9              10
 ................................................................................................................................................................
   1     -45.0973        -45.2681        -45.5874        -46.0071        -46.4489        -46.8056        -46.9722        -46.9698        -46.8978        -46.8398    
   2     -45.0671        -45.3288        -45.8441        -46.5825        -47.4577        -48.2384        -48.3223        -47.9226        -47.5147        -47.2800    
   3     -44.6426        -45.0343        -45.8697        -47.2750        -49.5144        -53.1333        -52.2834        -49.5830        -48.1129        -47.4578    
   4     -43.2979        -43.6161        -44.2703        -45.2941        -46.7308        -48.6068        -48.3443        -47.0008        -46.1230        -45.6925    
   5     -41.3103        -41.4870        -41.8284        -42.3027        -42.8404        -43.2976        -43.3904        -43.2081        -42.9922        -42.8601    
   6     -39.2217        -39.3060        -39.4634        -39.6698        -39.8868        -40.0641        -40.1550        -40.1668        -40.1424        -40.1198    
   7     -37.3756        -37.4142        -37.4860        -37.5790        -37.6771        -37.7628        -37.8235        -37.8575        -37.8722        -37.8768    
   8     -35.9316        -35.9499        -35.9842        -36.0292        -36.0780        -36.1237        -36.1611        -36.1879        -36.2046        -36.2127    
   9     -34.9528        -34.9625        -34.9810        -35.0055        -35.0329        -35.0597        -35.0832        -35.1016        -35.1141        -35.1206    
  10     -34.4605        -34.4672        -34.4795        -34.4962        -34.5151        -34.5341        -34.5515        -34.5656        -34.5756        -34.5807    

 HEAD WILL BE SAVED ON UNIT 1022 AT END OF TIME STEP    6, STRESS PERIOD   20


  VOLUME BUDGET FOR ENTIRE MODEL AT END OF TIME STEP    6, STRESS PERIOD  20
  ---------------------------------------------------------------------------------------------------

     CUMULATIVE VOLUME      L**3       RATES FOR THIS TIME STEP      L**3/T          PACKAGE NAME    
     ------------------                 ------------------------                     ----------------

           IN:                                      IN:
           ---                                      ---
              STO-SS =           0.0000                STO-SS =           0.0000     STORAGE                          
      CSUB-CGELASTIC =     6272780.8663        CSUB-CGELASTIC =         361.0577     CSUB                             
        CSUB-ELASTIC =     1620195.9267          CSUB-ELASTIC =           4.7651     CSUB                             
      CSUB-INELASTIC =   139535452.5829        CSUB-INELASTIC =       17168.9150     CSUB                             
      CSUB-WATERCOMP =           0.0000        CSUB-WATERCOMP =           0.0000     CSUB                             
                 WEL =           0.0000                   WEL =           0.0000     WEL_0                            
                RCHA =   157815000.0000                  RCHA =       27000.0000     RCHA_0                           
                 CHD =     4607713.1872                   CHD =         296.4797     CHD_0                            

            TOTAL IN =   309851142.5631              TOTAL IN =       44831.2175

          OUT:                                     OUT:
          ----                                     ----
              STO-SS =           0.0000                STO-SS =           0.0000     STORAGE                          
      CSUB-CGELASTIC =      548112.8185        CSUB-CGELASTIC =           0.0000     CSUB                             
        CSUB-ELASTIC =      244061.3137          CSUB-ELASTIC =           0.0000     CSUB                             
      CSUB-INELASTIC =           0.0000        CSUB-INELASTIC =           0.0000     CSUB                             
      CSUB-WATERCOMP =           0.0000        CSUB-WATERCOMP =           0.0000     CSUB                             
                 WEL =   208192500.0000                   WEL =       30000.0000     WEL_0                            
                RCHA =           0.0000                  RCHA =           0.0000     RCHA_0                           
                 CHD =   100866468.4273                   CHD =       14831.2175     CHD_0                            

           TOTAL OUT =   309851142.5595             TOTAL OUT =       44831.2175

            IN - OUT =       3.6362E-03              IN - OUT =       9.1451E-07

 PERCENT DISCREPANCY =           0.00     PERCENT DISCREPANCY =           0.00




         TIME SUMMARY AT END OF TIME STEP    6 IN STRESS PERIOD   20
                    SECONDS     MINUTES      HOURS       DAYS        YEARS
                    -----------------------------------------------------------
   TIME STEP LENGTH 9.18555E+06 1.53093E+05  2551.5      106.31     0.29107    
 STRESS PERIOD TIME 3.15576E+07 5.25960E+05  8766.0      365.25      1.0000    
         TOTAL TIME 5.99681E+08 9.99468E+06 1.66578E+05  6940.8      19.003    


end timestep


start timestep kper="21" kstp="1" mode="normal"


 OUTPUT CONTROL FOR STRESS PERIOD 21 IS REPEATED USING SETTINGS FROM A PREVIOUS STRESS PERIOD.


 STRESS PERIOD 21 IS TRANSIENT


 REUSING CSUBS FROM LAST STRESS PERIOD

 REUSING WELS FROM LAST STRESS PERIOD

 REUSING RCHS FROM LAST STRESS PERIOD

 REUSING CHDS FROM LAST STRESS PERIOD

end timestep


start timestep kper="21" kstp="2" mode="normal"


end timestep


start timestep kper="21" kstp="3" mode="normal"


end timestep


start timestep kper="21" kstp="4" mode="normal"


end timestep


start timestep kper="21" kstp="5" mode="normal"


end timestep


start timestep kper="21" kstp="6" mode="normal"

 UBDSV1 SAVING  CSUB-CGELASTIC  ON UNIT   1021 AT TIME STEP      6, STRESS PERIOD     21
 UBDSV06 SAVING    CSUB-ELASTIC  IN MODEL CSUB_SUB03A      PACKAGE CSUB_SUB03A     CONNECTED TO MODEL CSUB_SUB03A      PACKAGE CSUB             ON UNIT   1021 AT TIME STEP      6, STRESS PERIOD     21
 UBDSV06 SAVING  CSUB-INELASTIC  IN MODEL CSUB_SUB03A      PACKAGE CSUB_SUB03A     CONNECTED TO MODEL CSUB_SUB03A      PACKAGE CSUB             ON UNIT   1021 AT TIME STEP      6, STRESS PERIOD     21
 UBDSV1 SAVING  CSUB-WATERCOMP  ON UNIT   1021 AT TIME STEP      6, STRESS PERIOD     21

 WEL PACKAGE (WEL_0) FLOW RATES   PERIOD     21   STEP        6
 -----------------------------------------------
   NUMBER   CELLID                    RATE      
 -----------------------------------------------
     1      (3,3,6)              -14000.000     
     2      (3,3,7)              -8000.0000     
     3      (3,4,6)              -5000.0000     
     4      (3,4,7)              -3000.0000     
 -----------------------------------------------




 CSUB-COMPACTION WILL BE SAVED ON UNIT 1017 AT END OF TIME STEP    6, STRESS PERIOD   21
1
  HEAD IN LAYER   1 AT END OF TIME STEP   6 IN STRESS PERIOD   21
  ---------------------------------------------------------------------------

                1               2               3               4               5               6               7               8               9              10
 ................................................................................................................................................................
   1      16.8729         16.4420         15.6251         15.0982         14.8246         14.7903         14.9983         15.4682         16.2425         16.6504    
   2      15.7709         15.1583         14.6324         14.2489         14.0299         13.9840         14.1141         14.4176         14.8801         15.4558    
   3      14.2873         13.6906         13.2311         12.9036         12.7063         12.6388         12.7021         12.8972         13.2311         13.7315    
   4      12.3498         11.8304         11.4581         11.1962         11.0277         10.9430         10.9336         10.9862         11.0780         11.1668    
   5      9.63804         9.52751         9.38975         9.26299         9.16460         9.10108         9.07184         9.07042         9.08515         9.10042    
   6      7.50081         7.46542         7.40971         7.34940         7.29630         7.25721         7.23412         7.22482         7.22415         7.22606    
   7      5.62519         5.60374         5.56734         5.52655         5.49187         5.46967         5.46168         5.46510         5.47323         5.47926    
   8      3.94466         3.90970         3.85030         3.78714         3.74547         3.73339         3.75190         3.79489         3.83929         3.86623    
   9      2.50371         2.41177         2.24637         2.05976         1.97862         1.97277         2.04231         2.21747         2.37400         2.46115    
  10      1.52218         1.29838        0.817502         0.00000         0.00000         0.00000         0.00000        0.804883         1.27724         1.49672    
1
  HEAD IN LAYER   2 AT END OF TIME STEP   6 IN STRESS PERIOD   21
  ---------------------------------------------------------------------------

                1               2               3               4               5               6               7               8               9              10
 ................................................................................................................................................................
   1     -12.2699        -12.2753        -12.2887        -12.3069        -12.3269        -12.3467        -12.3651        -12.3823        -12.4000        -12.4209    
   2     -12.2879        -11.9492        -12.3235        -12.7746        -13.2274        -13.5758        -13.5610        -13.2720        -12.8859        -12.5239    
   3     -12.3340        -12.3518        -12.8867        -13.6278        -14.6879        -16.1656        -15.8272        -14.6354        -13.7479        -12.6277    
   4     -12.3953        -12.4807        -12.9135        -13.4672        -14.1669        -14.9765        -14.8865        -14.2984        -13.7656        -12.7090    
   5     -12.4658        -12.4980        -12.7025        -12.9614        -13.2374        -13.4644        -13.5173        -13.4349        -13.2807        -12.7604    
   6     -12.5386        -12.4242        -12.4982        -12.6123        -12.7288        -12.8225        -12.8716        -12.8803        -12.8676        -12.7944    
   7     -12.6155        -12.4040        -12.4197        -12.4755        -12.5323        -12.5785        -12.6079        -12.6223        -12.6524        -12.8240    
   8     -12.6983        -12.5031        -12.5132        -12.5586        -12.5976        -12.6223        -12.6298        -12.6237        -12.6448        -12.8566    
   9     -12.7858        -12.7296        -12.7913        -12.8798        -12.9276        -12.9415        -12.9201        -12.8547        -12.8133        -12.8936    
  10     -12.8738        -12.8950        -12.9147        -12.9316        -12.9433        -12.9498        -12.9510        -12.9469        -12.9400        -12.9315    
1
  HEAD IN LAYER   3 AT END OF TIME STEP   6 IN STRESS PERIOD   21
  ---------------------------------------------------------------------------

                1               2               3               4               5               6               7               8               9              10
 ................................................................................................................................................................
   1     -46.3179        -46.4887        -46.8080        -47.2278        -47.6697        -48.0264        -48.1931        -48.1908        -48.1188        -48.0608    
   2     -46.2879        -46.5496        -47.0649        -47.8034        -48.6787        -49.4595        -49.5435        -49.1438        -48.7359        -48.5012    
   3     -45.8637        -46.2554        -47.0909        -48.4964        -50.7360        -54.3550        -53.5052        -50.8047        -49.3346        -48.6795    
   4     -44.5195        -44.8378        -45.4921        -46.5160        -47.9528        -49.8290        -49.5665        -48.2230        -47.3452        -46.9146    
   5     -42.5324        -42.7091        -43.0506        -43.5251        -44.0628        -44.5202        -44.6130        -44.4307        -44.2147        -44.0826    
   6     -40.4442        -40.5285        -40.6860        -40.8925        -41.1095        -41.2869        -41.3779        -41.3897        -41.3653        -41.3427    
   7     -38.5985        -38.6372        -38.7090        -38.8020        -38.9001        -38.9859        -39.0466        -39.0806        -39.0953        -39.0999    
   8     -37.1547        -37.1730        -37.2074        -37.2524        -37.3013        -37.3470        -37.3844        -37.4112        -37.4279        -37.4359    
   9     -36.1760        -36.1858        -36.2043        -36.2289        -36.2563        -36.2831        -36.3066        -36.3250        -36.3375        -36.3440    
  10     -35.6838        -35.6904        -35.7029        -35.7195        -35.7384        -35.7575        -35.7749        -35.7890        -35.7989        -35.8041    

 HEAD WILL BE SAVED ON UNIT 1022 AT END OF TIME STEP    6, STRESS PERIOD   21


  VOLUME BUDGET FOR ENTIRE MODEL AT END OF TIME STEP    6, STRESS PERIOD  21
  ---------------------------------------------------------------------------------------------------

     CUMULATIVE VOLUME      L**3       RATES FOR THIS TIME STEP      L**3/T          PACKAGE NAME    
     ------------------                 ------------------------                     ----------------

           IN:                                      IN:
           ---                                      ---
              STO-SS =           0.0000                STO-SS =           0.0000     STORAGE                          
      CSUB-CGELASTIC =     6402444.0543        CSUB-CGELASTIC =         351.0313     CSUB                             
        CSUB-ELASTIC =     1621954.7449          CSUB-ELASTIC =           4.8448     CSUB                             
      CSUB-INELASTIC =   145742518.0352        CSUB-INELASTIC =       16876.4745     CSUB                             
      CSUB-WATERCOMP =           0.0000        CSUB-WATERCOMP =           0.0000     CSUB                             
                 WEL =           0.0000                   WEL =           0.0000     WEL_0                            
                RCHA =   167676750.0000                  RCHA =       27000.0000     RCHA_0                           
                 CHD =     4719101.6661                   CHD =         310.6538     CHD_0                            

            TOTAL IN =   326162768.5005              TOTAL IN =       44543.0044

          OUT:                                     OUT:
          ----                                     ----
              STO-SS =           0.0000                STO-SS =           0.0000     STORAGE                          
      CSUB-CGELASTIC =      548112.8185        CSUB-CGELASTIC =           0.0000     CSUB                             
        CSUB-ELASTIC =      244061.3137          CSUB-ELASTIC =           0.0000     CSUB                             
      CSUB-INELASTIC =           0.0000        CSUB-INELASTIC =           0.0000     CSUB                             
      CSUB-WATERCOMP =           0.0000        CSUB-WATERCOMP =           0.0000     CSUB                             
                 WEL =   219150000.0000                   WEL =       30000.0000     WEL_0                            
                RCHA =           0.0000                  RCHA =           0.0000     RCHA_0                           
                 CHD =   106220594.3643                   CHD =       14543.0044     CHD_0                            

           TOTAL OUT =   326162768.4965             TOTAL OUT =       44543.0044

            IN - OUT =       3.9902E-03              IN - OUT =       8.4918E-07

 PERCENT DISCREPANCY =           0.00     PERCENT DISCREPANCY =           0.00




         TIME SUMMARY AT END OF TIME STEP    6 IN STRESS PERIOD   21
                    SECONDS     MINUTES      HOURS       DAYS        YEARS
                    -----------------------------------------------------------
   TIME STEP LENGTH 9.18555E+06 1.53093E+05  2551.5      106.31     0.29107    
 STRESS PERIOD TIME 3.15576E+07 5.25960E+05  8766.0      365.25      1.0000    
         TOTAL TIME 6.31238E+08 1.05206E+07 1.75344E+05  7306.0      20.003    


end timestep


start timestep kper="22" kstp="1" mode="normal"


 OUTPUT CONTROL FOR STRESS PERIOD 22 IS REPEATED USING SETTINGS FROM A PREVIOUS STRESS PERIOD.


 STRESS PERIOD 22 IS TRANSIENT


 REUSING CSUBS FROM LAST STRESS PERIOD

 REUSING WELS FROM LAST STRESS PERIOD

 REUSING RCHS FROM LAST STRESS PERIOD

 REUSING CHDS FROM LAST STRESS PERIOD

end timestep


start timestep kper="22" kstp="2" mode="normal"


end timestep


start timestep kper="22" kstp="3" mode="normal"


end timestep


start timestep kper="22" kstp="4" mode="normal"


end timestep


start timestep kper="22" kstp="5" mode="normal"


end timestep


start timestep kper="22" kstp="6" mode="normal"

 UBDSV1 SAVING  CSUB-CGELASTIC  ON UNIT   1021 AT TIME STEP      6, STRESS PERIOD     22
 UBDSV06 SAVING    CSUB-ELASTIC  IN MODEL CSUB_SUB03A      PACKAGE CSUB_SUB03A     CONNECTED TO MODEL CSUB_SUB03A      PACKAGE CSUB             ON UNIT   1021 AT TIME STEP      6, STRESS PERIOD     22
 UBDSV06 SAVING  CSUB-INELASTIC  IN MODEL CSUB_SUB03A      PACKAGE CSUB_SUB03A     CONNECTED TO MODEL CSUB_SUB03A      PACKAGE CSUB             ON UNIT   1021 AT TIME STEP      6, STRESS PERIOD     22
 UBDSV1 SAVING  CSUB-WATERCOMP  ON UNIT   1021 AT TIME STEP      6, STRESS PERIOD     22

 WEL PACKAGE (WEL_0) FLOW RATES   PERIOD     22   STEP        6
 -----------------------------------------------
   NUMBER   CELLID                    RATE      
 -----------------------------------------------
     1      (3,3,6)              -14000.000     
     2      (3,3,7)              -8000.0000     
     3      (3,4,6)              -5000.0000     
     4      (3,4,7)              -3000.0000     
 -----------------------------------------------




 CSUB-COMPACTION WILL BE SAVED ON UNIT 1017 AT END OF TIME STEP    6, STRESS PERIOD   22
1
  HEAD IN LAYER   1 AT END OF TIME STEP   6 IN STRESS PERIOD   22
  ---------------------------------------------------------------------------

                1               2               3               4               5               6               7               8               9              10
 ................................................................................................................................................................
   1      16.7270         16.2961         15.4792         14.9522         14.6786         14.6443         14.8522         15.3222         16.0965         16.5043    
   2      15.6278         15.0152         14.4892         14.1057         13.8867         13.8407         13.9708         14.2743         14.7368         15.3124    
   3      14.1497         13.5530         13.0934         12.7658         12.5685         12.5009         12.5641         12.7593         13.0932         13.5937    
   4      12.2205         11.7011         11.3288         11.0668         10.8982         10.8134         10.8040         10.8567         10.9484         11.0373    
   5      9.51992         9.40939         9.27163         9.14486         9.04645         8.98288         8.95361         8.95216         8.96687         8.98214    
   6      7.39679         7.36144         7.30581         7.24557         7.19250         7.15340         7.13023         7.12082         7.12006         7.12192    
   7      5.53806         5.51679         5.48071         5.44023         5.40572         5.38351         5.37531         5.37840         5.38621         5.39205    
   8      3.87676         3.84242         3.78407         3.72199         3.68092         3.66883         3.68671         3.72862         3.77196         3.79827    
   9      2.45572         2.36568         2.20371         2.02095         1.94141         1.93555         2.00349         2.17478         2.32788         2.41313    
  10      1.48981         1.27076        0.800103         0.00000         0.00000         0.00000         0.00000        0.787473         1.24960         1.46433    
1
  HEAD IN LAYER   2 AT END OF TIME STEP   6 IN STRESS PERIOD   22
  ---------------------------------------------------------------------------

                1               2               3               4               5               6               7               8               9              10
 ................................................................................................................................................................
   1     -12.8729        -12.8783        -12.8918        -12.9101        -12.9302        -12.9500        -12.9684        -12.9857        -13.0034        -13.0243    
   2     -12.8905        -12.5216        -12.9026        -13.3659        -13.8295        -14.1850        -14.1694        -13.8732        -13.4789        -13.1272    
   3     -12.9362        -12.9385        -13.4842        -14.2421        -15.3217        -16.8183        -16.4765        -15.2677        -14.3621        -13.2308    
   4     -12.9970        -13.0772        -13.5187        -14.0843        -14.7972        -15.6186        -15.5280        -14.9310        -14.3864        -13.3117    
   5     -13.0667        -13.1019        -13.3105        -13.5750        -13.8566        -14.0880        -14.1420        -14.0580        -13.8990        -13.3624    
   6     -13.1387        -13.0316        -13.1073        -13.2239        -13.3429        -13.4385        -13.4887        -13.4976        -13.4833        -13.3954    
   7     -13.2145        -13.0131        -13.0298        -13.0867        -13.1448        -13.1921        -13.2222        -13.2369        -13.2665        -13.4238    
   8     -13.2960        -13.1131        -13.1243        -13.1705        -13.2104        -13.2356        -13.2434        -13.2374        -13.2578        -13.4549    
   9     -13.3821        -13.3399        -13.4037        -13.4931        -13.5416        -13.5557        -13.5343        -13.4685        -13.4254        -13.4904    
  10     -13.4689        -13.4897        -13.5092        -13.5259        -13.5375        -13.5440        -13.5454        -13.5415        -13.5349        -13.5267    
1
  HEAD IN LAYER   3 AT END OF TIME STEP   6 IN STRESS PERIOD   22
  ---------------------------------------------------------------------------

                1               2               3               4               5               6               7               8               9              10
 ................................................................................................................................................................
   1     -47.5039        -47.6747        -47.9940        -48.4139        -48.8558        -49.2126        -49.3793        -49.3770        -49.3050        -49.2471    
   2     -47.4739        -47.7356        -48.2510        -48.9896        -49.8650        -50.6459        -50.7300        -50.3302        -49.9223        -49.6877    
   3     -47.0500        -47.4418        -48.2774        -49.6830        -51.9227        -55.5419        -54.6921        -51.9916        -50.5215        -49.8663    
   4     -45.7062        -46.0245        -46.6789        -47.7029        -49.1399        -51.0161        -50.7537        -49.4103        -48.5324        -48.1017    
   5     -43.7194        -43.8961        -44.2377        -44.7122        -45.2501        -45.7075        -45.8004        -45.6181        -45.4021        -45.2699    
   6     -41.6314        -41.7158        -41.8734        -42.0799        -42.2970        -42.4744        -42.5654        -42.5772        -42.5528        -42.5302    
   7     -39.7859        -39.8246        -39.8965        -39.9896        -40.0877        -40.1735        -40.2343        -40.2683        -40.2830        -40.2876    
   8     -38.3423        -38.3606        -38.3950        -38.4401        -38.4890        -38.5347        -38.5722        -38.5990        -38.6156        -38.6236    
   9     -37.3637        -37.3735        -37.3920        -37.4166        -37.4440        -37.4708        -37.4944        -37.5128        -37.5253        -37.5317    
  10     -36.8714        -36.8780        -36.8905        -36.9071        -36.9261        -36.9452        -36.9625        -36.9767        -36.9866        -36.9917    

 HEAD WILL BE SAVED ON UNIT 1022 AT END OF TIME STEP    6, STRESS PERIOD   22


  VOLUME BUDGET FOR ENTIRE MODEL AT END OF TIME STEP    6, STRESS PERIOD  22
  ---------------------------------------------------------------------------------------------------

     CUMULATIVE VOLUME      L**3       RATES FOR THIS TIME STEP      L**3/T          PACKAGE NAME    
     ------------------                 ------------------------                     ----------------

           IN:                                      IN:
           ---                                      ---
              STO-SS =           0.0000                STO-SS =           0.0000     STORAGE                          
      CSUB-CGELASTIC =     6528579.4686        CSUB-CGELASTIC =         341.6083     CSUB                             
        CSUB-ELASTIC =     1623736.0316          CSUB-ELASTIC =           4.8949     CSUB                             
      CSUB-INELASTIC =   151841898.1638        CSUB-INELASTIC =       16580.2815     CSUB                             
      CSUB-WATERCOMP =           0.0000        CSUB-WATERCOMP =           0.0000     CSUB                             
                 WEL =           0.0000                   WEL =           0.0000     WEL_0                            
                RCHA =   177538500.0000                  RCHA =       27000.0000     RCHA_0                           
                 CHD =     4835688.2421                   CHD =         324.9164     CHD_0                            

            TOTAL IN =   342368401.9060              TOTAL IN =       44251.7011

          OUT:                                     OUT:
          ----                                     ----
              STO-SS =           0.0000                STO-SS =           0.0000     STORAGE                          
      CSUB-CGELASTIC =      548112.8185        CSUB-CGELASTIC =           0.0000     CSUB                             
        CSUB-ELASTIC =      244061.3137          CSUB-ELASTIC =           0.0000     CSUB                             
      CSUB-INELASTIC =           0.0000        CSUB-INELASTIC =           0.0000     CSUB                             
      CSUB-WATERCOMP =           0.0000        CSUB-WATERCOMP =           0.0000     CSUB                             
                 WEL =   230107500.0000                   WEL =       30000.0000     WEL_0                            
                RCHA =           0.0000                  RCHA =           0.0000     RCHA_0                           
                 CHD =   111468727.7695                   CHD =       14251.7011     CHD_0                            

           TOTAL OUT =   342368401.9017             TOTAL OUT =       44251.7011

            IN - OUT =       4.2928E-03              IN - OUT =       8.0065E-07

 PERCENT DISCREPANCY =           0.00     PERCENT DISCREPANCY =           0.00




         TIME SUMMARY AT END OF TIME STEP    6 IN STRESS PERIOD   22
                    SECONDS     MINUTES      HOURS       DAYS        YEARS
                    -----------------------------------------------------------
   TIME STEP LENGTH 9.18555E+06 1.53093E+05  2551.5      106.31     0.29107    
 STRESS PERIOD TIME 3.15576E+07 5.25960E+05  8766.0      365.25      1.0000    
         TOTAL TIME 6.62796E+08 1.10466E+07 1.84110E+05  7671.2      21.003    


end timestep


start timestep kper="23" kstp="1" mode="normal"


 OUTPUT CONTROL FOR STRESS PERIOD 23 IS REPEATED USING SETTINGS FROM A PREVIOUS STRESS PERIOD.


 STRESS PERIOD 23 IS TRANSIENT


 REUSING CSUBS FROM LAST STRESS PERIOD

 REUSING WELS FROM LAST STRESS PERIOD

 REUSING RCHS FROM LAST STRESS PERIOD

 REUSING CHDS FROM LAST STRESS PERIOD

end timestep


start timestep kper="23" kstp="2" mode="normal"


end timestep


start timestep kper="23" kstp="3" mode="normal"


end timestep


start timestep kper="23" kstp="4" mode="normal"


end timestep


start timestep kper="23" kstp="5" mode="normal"


end timestep


start timestep kper="23" kstp="6" mode="normal"

 UBDSV1 SAVING  CSUB-CGELASTIC  ON UNIT   1021 AT TIME STEP      6, STRESS PERIOD     23
 UBDSV06 SAVING    CSUB-ELASTIC  IN MODEL CSUB_SUB03A      PACKAGE CSUB_SUB03A     CONNECTED TO MODEL CSUB_SUB03A      PACKAGE CSUB             ON UNIT   1021 AT TIME STEP      6, STRESS PERIOD     23
 UBDSV06 SAVING  CSUB-INELASTIC  IN MODEL CSUB_SUB03A      PACKAGE CSUB_SUB03A     CONNECTED TO MODEL CSUB_SUB03A      PACKAGE CSUB             ON UNIT   1021 AT TIME STEP      6, STRESS PERIOD     23
 UBDSV1 SAVING  CSUB-WATERCOMP  ON UNIT   1021 AT TIME STEP      6, STRESS PERIOD     23

 WEL PACKAGE (WEL_0) FLOW RATES   PERIOD     23   STEP        6
 -----------------------------------------------
   NUMBER   CELLID                    RATE      
 -----------------------------------------------
     1      (3,3,6)              -14000.000     
     2      (3,3,7)              -8000.0000     
     3      (3,4,6)              -5000.0000     
     4      (3,4,7)              -3000.0000     
 -----------------------------------------------




 CSUB-COMPACTION WILL BE SAVED ON UNIT 1017 AT END OF TIME STEP    6, STRESS PERIOD   23
1
  HEAD IN LAYER   1 AT END OF TIME STEP   6 IN STRESS PERIOD   23
  ---------------------------------------------------------------------------

                1               2               3               4               5               6               7               8               9              10
 ................................................................................................................................................................
   1      16.5799         16.1490         15.3321         14.8051         14.5314         14.4971         14.7050         15.1750         15.9493         16.3571    
   2      15.4835         14.8709         14.3449         13.9614         13.7423         13.6963         13.8263         14.1299         14.5923         15.1680    
   3      14.0109         13.4143         12.9546         12.6270         12.4296         12.3620         12.4252         12.6203         12.9543         13.4548    
   4      12.0902         11.5708         11.1984         10.9364         10.7678         10.6830         10.6736         10.7262         10.8179         10.9068    
   5      9.40095         9.29042         9.15266         9.02588         8.92745         8.86386         8.83455         8.83306         8.84776         8.86302    
   6      7.29205         7.25675         7.20120         7.14104         7.08800         7.04888         7.02563         7.01612         7.01527         7.01708    
   7      5.45036         5.42928         5.39351         5.35335         5.31902         5.29680         5.28839         5.29114         5.29863         5.30428    
   8      3.80844         3.77472         3.71744         3.65644         3.61598         3.60388         3.62114         3.66195         3.70422         3.72990    
   9      2.40746         2.31932         2.16080         1.98192         1.90399         1.89813         1.96445         2.13185         2.28150         2.36484    
  10      1.45727         1.24299        0.782608         0.00000         0.00000         0.00000         0.00000        0.769969         1.22182         1.43177    
1
  HEAD IN LAYER   2 AT END OF TIME STEP   6 IN STRESS PERIOD   23
  ---------------------------------------------------------------------------

                1               2               3               4               5               6               7               8               9              10
 ................................................................................................................................................................
   1     -13.4823        -13.4879        -13.5015        -13.5199        -13.5400        -13.5599        -13.5784        -13.5956        -13.6133        -13.6341    
   2     -13.4991        -13.1059        -13.4922        -13.9660        -14.4387        -14.8004        -14.7840        -14.4817        -14.0806        -13.7364    
   3     -13.5439        -13.5344        -14.0892        -14.8614        -15.9580        -17.4707        -17.1260        -15.9026        -14.9813        -13.8393    
   4     -13.6036        -13.6807        -14.1297        -14.7056        -15.4300        -16.2615        -16.1703        -15.5658        -15.0106        -13.9192    
   5     -13.6722        -13.7109        -13.9231        -14.1925        -14.4789        -14.7141        -14.7691        -14.6838        -14.5204        -13.9686    
   6     -13.7426        -13.6427        -13.7201        -13.8387        -13.9599        -14.0571        -14.1083        -14.1174        -14.1014        -14.0001    
   7     -13.8167        -13.6245        -13.6421        -13.7001        -13.7593        -13.8075        -13.8382        -13.8533        -13.8820        -14.0266    
   8     -13.8963        -13.7239        -13.7362        -13.7831        -13.8236        -13.8493        -13.8574        -13.8516        -13.8710        -14.0558    
   9     -13.9806        -13.9495        -14.0150        -14.1049        -14.1538        -14.1682        -14.1469        -14.0811        -14.0364        -14.0893    
  10     -14.0656        -14.0861        -14.1052        -14.1217        -14.1331        -14.1397        -14.1412        -14.1377        -14.1314        -14.1237    
1
  HEAD IN LAYER   3 AT END OF TIME STEP   6 IN STRESS PERIOD   23
  ---------------------------------------------------------------------------

                1               2               3               4               5               6               7               8               9              10
 ................................................................................................................................................................
   1     -48.6574        -48.8282        -49.1476        -49.5675        -50.0095        -50.3663        -50.5331        -50.5308        -50.4588        -50.4009    
   2     -48.6275        -48.8891        -49.4046        -50.1433        -51.0188        -51.7998        -51.8839        -51.4842        -51.0762        -50.8416    
   3     -48.2038        -48.5955        -49.4312        -50.8370        -53.0768        -56.6961        -55.8464        -53.1459        -51.6756        -51.0204    
   4     -46.8601        -47.1785        -47.8330        -48.8571        -50.2942        -52.1705        -51.9082        -50.5647        -49.6868        -49.2561    
   5     -44.8735        -45.0503        -45.3919        -45.8666        -46.4045        -46.8620        -46.9549        -46.7726        -46.5566        -46.4244    
   6     -42.7857        -42.8701        -43.0277        -43.2343        -43.4514        -43.6289        -43.7200        -43.7318        -43.7073        -43.6847    
   7     -40.9402        -40.9790        -41.0509        -41.1440        -41.2422        -41.3280        -41.3888        -41.4228        -41.4375        -41.4420    
   8     -39.4966        -39.5150        -39.5494        -39.5945        -39.6434        -39.6892        -39.7266        -39.7535        -39.7701        -39.7781    
   9     -38.5179        -38.5278        -38.5464        -38.5710        -38.5984        -38.6252        -38.6488        -38.6672        -38.6797        -38.6860    
  10     -38.0256        -38.0323        -38.0447        -38.0614        -38.0803        -38.0994        -38.1168        -38.1310        -38.1409        -38.1460    

 HEAD WILL BE SAVED ON UNIT 1022 AT END OF TIME STEP    6, STRESS PERIOD   23


  VOLUME BUDGET FOR ENTIRE MODEL AT END OF TIME STEP    6, STRESS PERIOD  23
  ---------------------------------------------------------------------------------------------------

     CUMULATIVE VOLUME      L**3       RATES FOR THIS TIME STEP      L**3/T          PACKAGE NAME    
     ------------------                 ------------------------                     ----------------

           IN:                                      IN:
           ---                                      ---
              STO-SS =           0.0000                STO-SS =           0.0000     STORAGE                          
      CSUB-CGELASTIC =     6651390.9890        CSUB-CGELASTIC =         332.7149     CSUB                             
        CSUB-ELASTIC =     1625530.1078          CSUB-ELASTIC =           4.9204     CSUB                             
      CSUB-INELASTIC =   157832581.0757        CSUB-INELASTIC =       16281.9366     CSUB                             
      CSUB-WATERCOMP =           0.0000        CSUB-WATERCOMP =           0.0000     CSUB                             
                 WEL =           0.0000                   WEL =           0.0000     WEL_0                            
                RCHA =   187400250.0000                  RCHA =       27000.0000     RCHA_0                           
                 CHD =     4957493.3075                   CHD =         339.2139     CHD_0                            

            TOTAL IN =   358467245.4800              TOTAL IN =       43958.7858

          OUT:                                     OUT:
          ----                                     ----
              STO-SS =           0.0000                STO-SS =           0.0000     STORAGE                          
      CSUB-CGELASTIC =      548112.8185        CSUB-CGELASTIC =           0.0000     CSUB                             
        CSUB-ELASTIC =      244061.3137          CSUB-ELASTIC =           0.0000     CSUB                             
      CSUB-INELASTIC =           0.0000        CSUB-INELASTIC =           0.0000     CSUB                             
      CSUB-WATERCOMP =           0.0000        CSUB-WATERCOMP =           0.0000     CSUB                             
                 WEL =   241065000.0000                   WEL =       30000.0000     WEL_0                            
                RCHA =           0.0000                  RCHA =           0.0000     RCHA_0                           
                 CHD =   116610071.3431                   CHD =       13958.7858     CHD_0                            

           TOTAL OUT =   358467245.4753             TOTAL OUT =       43958.7858

            IN - OUT =       4.6439E-03              IN - OUT =       7.8767E-07

 PERCENT DISCREPANCY =           0.00     PERCENT DISCREPANCY =           0.00




         TIME SUMMARY AT END OF TIME STEP    6 IN STRESS PERIOD   23
                    SECONDS     MINUTES      HOURS       DAYS        YEARS
                    -----------------------------------------------------------
   TIME STEP LENGTH 9.18555E+06 1.53093E+05  2551.5      106.31     0.29107    
 STRESS PERIOD TIME 3.15576E+07 5.25960E+05  8766.0      365.25      1.0000    
         TOTAL TIME 6.94354E+08 1.15726E+07 1.92876E+05  8036.5      22.003    


end timestep


start timestep kper="24" kstp="1" mode="normal"


 OUTPUT CONTROL FOR STRESS PERIOD 24 IS REPEATED USING SETTINGS FROM A PREVIOUS STRESS PERIOD.


 STRESS PERIOD 24 IS TRANSIENT


 REUSING CSUBS FROM LAST STRESS PERIOD

 REUSING WELS FROM LAST STRESS PERIOD

 REUSING RCHS FROM LAST STRESS PERIOD

 REUSING CHDS FROM LAST STRESS PERIOD

end timestep


start timestep kper="24" kstp="2" mode="normal"


end timestep


start timestep kper="24" kstp="3" mode="normal"


end timestep


start timestep kper="24" kstp="4" mode="normal"


end timestep


start timestep kper="24" kstp="5" mode="normal"


end timestep


start timestep kper="24" kstp="6" mode="normal"

 UBDSV1 SAVING  CSUB-CGELASTIC  ON UNIT   1021 AT TIME STEP      6, STRESS PERIOD     24
 UBDSV06 SAVING    CSUB-ELASTIC  IN MODEL CSUB_SUB03A      PACKAGE CSUB_SUB03A     CONNECTED TO MODEL CSUB_SUB03A      PACKAGE CSUB             ON UNIT   1021 AT TIME STEP      6, STRESS PERIOD     24
 UBDSV06 SAVING  CSUB-INELASTIC  IN MODEL CSUB_SUB03A      PACKAGE CSUB_SUB03A     CONNECTED TO MODEL CSUB_SUB03A      PACKAGE CSUB             ON UNIT   1021 AT TIME STEP      6, STRESS PERIOD     24
 UBDSV1 SAVING  CSUB-WATERCOMP  ON UNIT   1021 AT TIME STEP      6, STRESS PERIOD     24

 WEL PACKAGE (WEL_0) FLOW RATES   PERIOD     24   STEP        6
 -----------------------------------------------
   NUMBER   CELLID                    RATE      
 -----------------------------------------------
     1      (3,3,6)              -14000.000     
     2      (3,3,7)              -8000.0000     
     3      (3,4,6)              -5000.0000     
     4      (3,4,7)              -3000.0000     
 -----------------------------------------------




 CSUB-COMPACTION WILL BE SAVED ON UNIT 1017 AT END OF TIME STEP    6, STRESS PERIOD   24
1
  HEAD IN LAYER   1 AT END OF TIME STEP   6 IN STRESS PERIOD   24
  ---------------------------------------------------------------------------

                1               2               3               4               5               6               7               8               9              10
 ................................................................................................................................................................
   1      16.4323         16.0015         15.1845         14.6575         14.3838         14.3495         14.5574         15.0273         15.8016         16.2094    
   2      15.3387         14.7262         14.2001         13.8165         13.5974         13.5514         13.6814         13.9850         14.4474         15.0231    
   3      13.8718         13.2751         12.8155         12.4878         12.2903         12.2226         12.2859         12.4810         12.8150         13.3155    
   4      11.9595         11.4401         11.0677         10.8057         10.6370         10.5521         10.5427         10.5953         10.6871         10.7760    
   5      9.28166         9.17113         9.03338         8.90659         8.80815         8.74453         8.71519         8.71367         8.72835         8.74361    
   6      7.18706         7.15180         7.09633         7.03625         6.98326         6.94412         6.92080         6.91118         6.91023         6.91199    
   7      5.36247         5.34158         5.30613         5.26628         5.23215         5.20991         5.20130         5.20371         5.21087         5.21633    
   8      3.73999         3.70691         3.65068         3.59078         3.55093         3.53882         3.55546         3.59516         3.63636         3.66141    
   9      2.35912         2.27290         2.11784         1.94283         1.86652         1.86065         1.92535         2.08886         2.23505         2.31648    
  10      1.42468         1.21518        0.765090         0.00000         0.00000         0.00000         0.00000        0.752443         1.19400         1.39916    
1
  HEAD IN LAYER   2 AT END OF TIME STEP   6 IN STRESS PERIOD   24
  ---------------------------------------------------------------------------

                1               2               3               4               5               6               7               8               9              10
 ................................................................................................................................................................
   1     -14.0949        -14.1007        -14.1145        -14.1330        -14.1532        -14.1731        -14.1916        -14.2087        -14.2263        -14.2469    
   2     -14.1106        -13.6984        -14.0887        -14.5714        -15.0521        -15.4190        -15.4021        -15.0945        -14.6877        -14.3484    
   3     -14.1542        -14.1361        -14.6984        -15.4832        -16.5943        -18.1207        -17.7737        -16.5377        -15.6029        -14.4503    
   4     -14.2125        -14.2883        -14.7436        -15.3285        -16.0627        -16.9029        -16.8113        -16.2002        -15.6357        -14.5287    
   5     -14.2793        -14.3224        -14.5377        -14.8112        -15.1020        -15.3404        -15.3962        -15.3097        -15.1424        -14.5764    
   6     -14.3478        -14.2548        -14.3338        -14.4542        -14.5772        -14.6760        -14.7280        -14.7372        -14.7195        -14.6058    
   7     -14.4197        -14.2356        -14.2544        -14.3132        -14.3733        -14.4223        -14.4535        -14.4689        -14.4968        -14.6301    
   8     -14.4971        -14.3332        -14.3466        -14.3940        -14.4350        -14.4611        -14.4696        -14.4640        -14.4825        -14.6569    
   9     -14.5791        -14.5562        -14.6232        -14.7133        -14.7625        -14.7771        -14.7560        -14.6904        -14.6444        -14.6880    
  10     -14.6620        -14.6820        -14.7007        -14.7169        -14.7283        -14.7348        -14.7365        -14.7333        -14.7274        -14.7202    
1
  HEAD IN LAYER   3 AT END OF TIME STEP   6 IN STRESS PERIOD   24
  ---------------------------------------------------------------------------

                1               2               3               4               5               6               7               8               9              10
 ................................................................................................................................................................
   1     -49.7803        -49.9512        -50.2706        -50.6906        -51.1326        -51.4895        -51.6562        -51.6540        -51.5820        -51.5241    
   2     -49.7505        -50.0121        -50.5277        -51.2664        -52.1420        -52.9230        -53.0072        -52.6075        -52.1995        -51.9649    
   3     -49.3269        -49.7187        -50.5544        -51.9603        -54.2003        -57.8196        -56.9699        -54.2694        -52.7991        -52.1439    
   4     -47.9833        -48.3017        -48.9563        -49.9805        -51.4177        -53.2941        -53.0318        -51.6883        -50.8103        -50.3796    
   5     -45.9968        -46.1736        -46.5152        -46.9900        -47.5280        -47.9855        -48.0784        -47.8961        -47.6801        -47.5479    
   6     -43.9089        -43.9934        -44.1510        -44.3577        -44.5748        -44.7524        -44.8434        -44.8552        -44.8308        -44.8081    
   7     -42.0634        -42.1022        -42.1741        -42.2673        -42.3655        -42.4514        -42.5121        -42.5461        -42.5608        -42.5653    
   8     -40.6197        -40.6381        -40.6726        -40.7177        -40.7666        -40.8124        -40.8499        -40.8767        -40.8933        -40.9012    
   9     -39.6409        -39.6508        -39.6694        -39.6940        -39.7215        -39.7483        -39.7718        -39.7902        -39.8027        -39.8091    
  10     -39.1485        -39.1552        -39.1676        -39.1843        -39.2032        -39.2224        -39.2397        -39.2539        -39.2638        -39.2689    

 HEAD WILL BE SAVED ON UNIT 1022 AT END OF TIME STEP    6, STRESS PERIOD   24


  VOLUME BUDGET FOR ENTIRE MODEL AT END OF TIME STEP    6, STRESS PERIOD  24
  ---------------------------------------------------------------------------------------------------

     CUMULATIVE VOLUME      L**3       RATES FOR THIS TIME STEP      L**3/T          PACKAGE NAME    
     ------------------                 ------------------------                     ----------------

           IN:                                      IN:
           ---                                      ---
              STO-SS =           0.0000                STO-SS =           0.0000     STORAGE                          
      CSUB-CGELASTIC =     6771058.0237        CSUB-CGELASTIC =         324.2883     CSUB                             
        CSUB-ELASTIC =     1627328.9586          CSUB-ELASTIC =           4.9256     CSUB                             
      CSUB-INELASTIC =   163714079.3499        CSUB-INELASTIC =       15982.7716     CSUB                             
      CSUB-WATERCOMP =           0.0000        CSUB-WATERCOMP =           0.0000     CSUB                             
                 WEL =           0.0000                   WEL =           0.0000     WEL_0                            
                RCHA =   197262000.0000                  RCHA =       27000.0000     RCHA_0                           
                 CHD =     5084519.1378                   CHD =         353.4993     CHD_0                            

            TOTAL IN =   374458985.4700              TOTAL IN =       43665.4848

          OUT:                                     OUT:
          ----                                     ----
              STO-SS =           0.0000                STO-SS =           0.0000     STORAGE                          
      CSUB-CGELASTIC =      548112.8185        CSUB-CGELASTIC =           0.0000     CSUB                             
        CSUB-ELASTIC =      244061.3137          CSUB-ELASTIC =           0.0000     CSUB                             
      CSUB-INELASTIC =           0.0000        CSUB-INELASTIC =           0.0000     CSUB                             
      CSUB-WATERCOMP =           0.0000        CSUB-WATERCOMP =           0.0000     CSUB                             
                 WEL =   252022500.0000                   WEL =       30000.0000     WEL_0                            
                RCHA =           0.0000                  RCHA =           0.0000     RCHA_0                           
                 CHD =   121644311.3328                   CHD =       13665.4848     CHD_0                            

           TOTAL OUT =   374458985.4650             TOTAL OUT =       43665.4848

            IN - OUT =       4.9911E-03              IN - OUT =       7.4513E-07

 PERCENT DISCREPANCY =           0.00     PERCENT DISCREPANCY =           0.00




         TIME SUMMARY AT END OF TIME STEP    6 IN STRESS PERIOD   24
                    SECONDS     MINUTES      HOURS       DAYS        YEARS
                    -----------------------------------------------------------
   TIME STEP LENGTH 9.18555E+06 1.53093E+05  2551.5      106.31     0.29107    
 STRESS PERIOD TIME 3.15576E+07 5.25960E+05  8766.0      365.25      1.0000    
         TOTAL TIME 7.25911E+08 1.20985E+07 2.01642E+05  8401.8      23.003    


end timestep


start timestep kper="25" kstp="1" mode="normal"


 OUTPUT CONTROL FOR STRESS PERIOD 25 IS REPEATED USING SETTINGS FROM A PREVIOUS STRESS PERIOD.


 STRESS PERIOD 25 IS TRANSIENT


 REUSING CSUBS FROM LAST STRESS PERIOD

 REUSING WELS FROM LAST STRESS PERIOD

 REUSING RCHS FROM LAST STRESS PERIOD

 REUSING CHDS FROM LAST STRESS PERIOD

end timestep


start timestep kper="25" kstp="2" mode="normal"


end timestep


start timestep kper="25" kstp="3" mode="normal"


end timestep


start timestep kper="25" kstp="4" mode="normal"


end timestep


start timestep kper="25" kstp="5" mode="normal"


end timestep


start timestep kper="25" kstp="6" mode="normal"

 UBDSV1 SAVING  CSUB-CGELASTIC  ON UNIT   1021 AT TIME STEP      6, STRESS PERIOD     25
 UBDSV06 SAVING    CSUB-ELASTIC  IN MODEL CSUB_SUB03A      PACKAGE CSUB_SUB03A     CONNECTED TO MODEL CSUB_SUB03A      PACKAGE CSUB             ON UNIT   1021 AT TIME STEP      6, STRESS PERIOD     25
 UBDSV06 SAVING  CSUB-INELASTIC  IN MODEL CSUB_SUB03A      PACKAGE CSUB_SUB03A     CONNECTED TO MODEL CSUB_SUB03A      PACKAGE CSUB             ON UNIT   1021 AT TIME STEP      6, STRESS PERIOD     25
 UBDSV1 SAVING  CSUB-WATERCOMP  ON UNIT   1021 AT TIME STEP      6, STRESS PERIOD     25

 WEL PACKAGE (WEL_0) FLOW RATES   PERIOD     25   STEP        6
 -----------------------------------------------
   NUMBER   CELLID                    RATE      
 -----------------------------------------------
     1      (3,3,6)              -14000.000     
     2      (3,3,7)              -8000.0000     
     3      (3,4,6)              -5000.0000     
     4      (3,4,7)              -3000.0000     
 -----------------------------------------------




 CSUB-COMPACTION WILL BE SAVED ON UNIT 1017 AT END OF TIME STEP    6, STRESS PERIOD   25
1
  HEAD IN LAYER   1 AT END OF TIME STEP   6 IN STRESS PERIOD   25
  ---------------------------------------------------------------------------

                1               2               3               4               5               6               7               8               9              10
 ................................................................................................................................................................
   1      16.2848         15.8540         15.0370         14.5099         14.2363         14.2019         14.4098         14.8797         15.6540         16.0618    
   2      15.1941         14.5815         14.0554         13.6718         13.4527         13.4066         13.5366         13.8402         14.3026         14.8783    
   3      13.7327         13.1360         12.6764         12.3486         12.1511         12.0834         12.1466         12.3418         12.6758         13.1763    
   4      11.8290         11.3095         10.9371         10.6750         10.5063         10.4214         10.4120         10.4646         10.5564         10.6453    
   5      9.16249         9.05197         8.91421         8.78743         8.68898         8.62534         8.59596         8.59442         8.60907         8.62433    
   6      7.08219         7.04699         6.99160         6.93160         6.87865         6.83949         6.81610         6.80639         6.80534         6.80705    
   7      5.27472         5.25401         5.21888         5.17935         5.14541         5.12316         5.11434         5.11642         5.12325         5.12852    
   8      3.67166         3.63921         3.58405         3.52523         3.48599         3.47388         3.48989         3.52850         3.56863         3.59305    
   9      2.31088         2.22658         2.07496         1.90383         1.82912         1.82326         1.88634         2.04597         2.18871         2.26821    
  10      1.39216         1.18744        0.747609         0.00000         0.00000         0.00000         0.00000        0.734955         1.16624         1.36663    
1
  HEAD IN LAYER   2 AT END OF TIME STEP   6 IN STRESS PERIOD   25
  ---------------------------------------------------------------------------

                1               2               3               4               5               6               7               8               9              10
 ................................................................................................................................................................
   1     -14.7080        -14.7140        -14.7281        -14.7467        -14.7670        -14.7869        -14.8053        -14.8224        -14.8398        -14.8603    
   2     -14.7224        -14.2957        -14.6891        -15.1795        -15.6671        -16.0385        -16.0211        -15.7090        -15.2975        -14.9607    
   3     -14.7645        -14.7408        -15.3095        -16.1050        -17.2287        -18.7668        -18.4178        -17.1711        -16.2244        -15.0611    
   4     -14.8210        -14.8973        -15.3581        -15.9507        -16.6935        -17.5411        -17.4491        -16.8325        -16.2596        -15.1379    
   5     -14.8858        -14.9338        -15.1520        -15.4292        -15.7236        -15.9648        -16.0214        -15.9338        -15.7627        -15.1835    
   6     -14.9520        -14.8659        -14.9463        -15.0683        -15.1929        -15.2930        -15.3457        -15.3550        -15.3357        -15.2106    
   7     -15.0215        -14.8447        -14.8644        -14.9240        -14.9849        -15.0346        -15.0663        -15.0820        -15.1089        -15.2323    
   8     -15.0963        -14.9393        -14.9538        -15.0015        -15.0429        -15.0694        -15.0782        -15.0728        -15.0904        -15.2565    
   9     -15.1758        -15.1586        -15.2268        -15.3168        -15.3661        -15.3809        -15.3600        -15.2949        -15.2478        -15.2850    
  10     -15.2563        -15.2758        -15.2942        -15.3100        -15.3213        -15.3278        -15.3297        -15.3268        -15.3214        -15.3147    
1
  HEAD IN LAYER   3 AT END OF TIME STEP   6 IN STRESS PERIOD   25
  ---------------------------------------------------------------------------

                1               2               3               4               5               6               7               8               9              10
 ................................................................................................................................................................
   1     -50.8744        -51.0453        -51.3648        -51.7848        -52.2268        -52.5837        -52.7505        -52.7483        -52.6763        -52.6184    
   2     -50.8446        -51.1062        -51.6218        -52.3606        -53.2363        -54.0174        -54.1015        -53.7018        -53.2939        -53.0592    
   3     -50.4210        -50.8128        -51.6486        -53.0546        -55.2947        -58.9141        -58.0645        -55.3639        -53.8936        -53.2383    
   4     -49.0775        -49.3959        -50.0505        -51.0748        -52.5121        -54.3886        -54.1263        -52.7828        -51.9048        -51.4740    
   5     -47.0909        -47.2677        -47.6094        -48.0842        -48.6223        -49.0799        -49.1728        -48.9905        -48.7745        -48.6422    
   6     -45.0029        -45.0874        -45.2451        -45.4518        -45.6690        -45.8465        -45.9376        -45.9494        -45.9249        -45.9022    
   7     -43.1572        -43.1961        -43.2680        -43.3612        -43.4595        -43.5453        -43.6061        -43.6401        -43.6548        -43.6593    
   8     -41.7133        -41.7318        -41.7663        -41.8114        -41.8604        -41.9062        -41.9436        -41.9704        -41.9871        -41.9950    
   9     -40.7344        -40.7443        -40.7629        -40.7876        -40.8150        -40.8419        -40.8654        -40.8838        -40.8963        -40.9026    
  10     -40.2419        -40.2485        -40.2610        -40.2777        -40.2966        -40.3157        -40.3331        -40.3473        -40.3572        -40.3623    

 HEAD WILL BE SAVED ON UNIT 1022 AT END OF TIME STEP    6, STRESS PERIOD   25


  VOLUME BUDGET FOR ENTIRE MODEL AT END OF TIME STEP    6, STRESS PERIOD  25
  ---------------------------------------------------------------------------------------------------

     CUMULATIVE VOLUME      L**3       RATES FOR THIS TIME STEP      L**3/T          PACKAGE NAME    
     ------------------                 ------------------------                     ----------------

           IN:                                      IN:
           ---                                      ---
              STO-SS =           0.0000                STO-SS =           0.0000     STORAGE                          
      CSUB-CGELASTIC =     6887739.1316        CSUB-CGELASTIC =         316.2750     CSUB                             
        CSUB-ELASTIC =     1629125.9599          CSUB-ELASTIC =           4.9141     CSUB                             
      CSUB-INELASTIC =   169486341.2125        CSUB-INELASTIC =       15683.8912     CSUB                             
      CSUB-WATERCOMP =           0.0000        CSUB-WATERCOMP =           0.0000     CSUB                             
                 WEL =           0.0000                   WEL =           0.0000     WEL_0                            
                RCHA =   207123750.0000                  RCHA =       27000.0000     RCHA_0                           
                 CHD =     5216752.3440                   CHD =         367.7325     CHD_0                            

            TOTAL IN =   390343708.6479              TOTAL IN =       43372.8128

          OUT:                                     OUT:
          ----                                     ----
              STO-SS =           0.0000                STO-SS =           0.0000     STORAGE                          
      CSUB-CGELASTIC =      548112.8185        CSUB-CGELASTIC =           0.0000     CSUB                             
        CSUB-ELASTIC =      244061.3137          CSUB-ELASTIC =           0.0000     CSUB                             
      CSUB-INELASTIC =           0.0000        CSUB-INELASTIC =           0.0000     CSUB                             
      CSUB-WATERCOMP =           0.0000        CSUB-WATERCOMP =           0.0000     CSUB                             
                 WEL =   262980000.0000                   WEL =       30000.0000     WEL_0                            
                RCHA =           0.0000                  RCHA =           0.0000     RCHA_0                           
                 CHD =   126571534.5104                   CHD =       13372.8128     CHD_0                            

           TOTAL OUT =   390343708.6426             TOTAL OUT =       43372.8128

            IN - OUT =       5.3643E-03              IN - OUT =       6.9775E-07

 PERCENT DISCREPANCY =           0.00     PERCENT DISCREPANCY =           0.00




         TIME SUMMARY AT END OF TIME STEP    6 IN STRESS PERIOD   25
                    SECONDS     MINUTES      HOURS       DAYS        YEARS
                    -----------------------------------------------------------
   TIME STEP LENGTH 9.18555E+06 1.53093E+05  2551.5      106.31     0.29107    
 STRESS PERIOD TIME 3.15576E+07 5.25960E+05  8766.0      365.25      1.0000    
         TOTAL TIME 7.57469E+08 1.26245E+07 2.10408E+05  8767.0      24.003    


end timestep


start timestep kper="26" kstp="1" mode="normal"


 OUTPUT CONTROL FOR STRESS PERIOD 26 IS REPEATED USING SETTINGS FROM A PREVIOUS STRESS PERIOD.


 STRESS PERIOD 26 IS TRANSIENT


 REUSING CSUBS FROM LAST STRESS PERIOD

 REUSING WELS FROM LAST STRESS PERIOD

 REUSING RCHS FROM LAST STRESS PERIOD

 REUSING CHDS FROM LAST STRESS PERIOD

end timestep


start timestep kper="26" kstp="2" mode="normal"


end timestep


start timestep kper="26" kstp="3" mode="normal"


end timestep


start timestep kper="26" kstp="4" mode="normal"


end timestep


start timestep kper="26" kstp="5" mode="normal"


end timestep


start timestep kper="26" kstp="6" mode="normal"

 UBDSV1 SAVING  CSUB-CGELASTIC  ON UNIT   1021 AT TIME STEP      6, STRESS PERIOD     26
 UBDSV06 SAVING    CSUB-ELASTIC  IN MODEL CSUB_SUB03A      PACKAGE CSUB_SUB03A     CONNECTED TO MODEL CSUB_SUB03A      PACKAGE CSUB             ON UNIT   1021 AT TIME STEP      6, STRESS PERIOD     26
 UBDSV06 SAVING  CSUB-INELASTIC  IN MODEL CSUB_SUB03A      PACKAGE CSUB_SUB03A     CONNECTED TO MODEL CSUB_SUB03A      PACKAGE CSUB             ON UNIT   1021 AT TIME STEP      6, STRESS PERIOD     26
 UBDSV1 SAVING  CSUB-WATERCOMP  ON UNIT   1021 AT TIME STEP      6, STRESS PERIOD     26

 WEL PACKAGE (WEL_0) FLOW RATES   PERIOD     26   STEP        6
 -----------------------------------------------
   NUMBER   CELLID                    RATE      
 -----------------------------------------------
     1      (3,3,6)              -14000.000     
     2      (3,3,7)              -8000.0000     
     3      (3,4,6)              -5000.0000     
     4      (3,4,7)              -3000.0000     
 -----------------------------------------------




 CSUB-COMPACTION WILL BE SAVED ON UNIT 1017 AT END OF TIME STEP    6, STRESS PERIOD   26
1
  HEAD IN LAYER   1 AT END OF TIME STEP   6 IN STRESS PERIOD   26
  ---------------------------------------------------------------------------

                1               2               3               4               5               6               7               8               9              10
 ................................................................................................................................................................
   1      16.1379         15.7070         14.8900         14.3629         14.0892         14.0549         14.2628         14.7327         15.5070         15.9148    
   2      15.0499         14.4373         13.9113         13.5276         13.3084         13.2624         13.3924         13.6959         14.1584         14.7341    
   3      13.5942         12.9975         12.5378         12.2100         12.0125         11.9447         12.0079         12.2031         12.5371         13.0376    
   4      11.6989         11.1795         10.8070         10.5449         10.3761         10.2913         10.2818         10.3344         10.4262         10.5151    
   5      9.04380         8.93328         8.79554         8.66876         8.57030         8.50664         8.47724         8.47566         8.49030         8.50555    
   6      6.97777         6.94261         6.88731         6.82739         6.77449         6.73532         6.71186         6.70204         6.70091         6.70256    
   7      5.18734         5.16683         5.13202         5.09281         5.05905         5.03680         5.02777         5.02953         5.03603         5.04110    
   8      3.60365         3.57183         3.51773         3.45999         3.42137         3.40925         3.42464         3.46216         3.50122         3.52501    
   9      2.26288         2.18048         2.03229         1.86502         1.79192         1.78605         1.84752         2.00329         2.14259         2.22019    
  10      1.35980         1.15983        0.730216         0.00000         0.00000         0.00000         0.00000        0.717556         1.13862         1.33426    
1
  HEAD IN LAYER   2 AT END OF TIME STEP   6 IN STRESS PERIOD   26
  ---------------------------------------------------------------------------

                1               2               3               4               5               6               7               8               9              10
 ................................................................................................................................................................
   1     -15.3194        -15.3258        -15.3400        -15.3588        -15.3792        -15.3992        -15.4175        -15.4345        -15.4517        -15.4719    
   2     -15.3325        -14.8952        -15.2911        -15.7881        -16.2816        -16.6569        -16.6391        -16.3231        -15.9075        -15.5710    
   3     -15.3729        -15.3461        -15.9202        -16.7249        -17.8595        -19.4076        -19.0569        -17.8010        -16.8441        -15.6699    
   4     -15.4274        -15.5057        -15.9712        -16.5705        -17.3206        -18.1746        -18.0824        -17.4609        -16.8806        -15.7447    
   5     -15.4899        -15.5434        -15.7641        -16.0444        -16.3420        -16.5857        -16.6429        -16.5544        -16.3799        -15.7881    
   6     -15.5535        -15.4741        -15.5560        -15.6793        -15.8053        -15.9065        -15.9598        -15.9692        -15.9482        -15.8126    
   7     -15.6203        -15.4499        -15.4707        -15.5309        -15.5925        -15.6427        -15.6749        -15.6909        -15.7168        -15.8315    
   8     -15.6923        -15.5407        -15.5561        -15.6041        -15.6458        -15.6726        -15.6817        -15.6766        -15.6933        -15.8528    
   9     -15.7691        -15.7554        -15.8244        -15.9141        -15.9634        -15.9784        -15.9578        -15.8934        -15.8455        -15.8785    
  10     -15.8472        -15.8661        -15.8840        -15.8995        -15.9106        -15.9172        -15.9192        -15.9167        -15.9117        -15.9056    
1
  HEAD IN LAYER   3 AT END OF TIME STEP   6 IN STRESS PERIOD   26
  ---------------------------------------------------------------------------

                1               2               3               4               5               6               7               8               9              10
 ................................................................................................................................................................
   1     -51.9411        -52.1120        -52.4315        -52.8515        -53.2936        -53.6506        -53.8174        -53.8152        -53.7432        -53.6853    
   2     -51.9112        -52.1729        -52.6885        -53.4274        -54.3032        -55.0843        -55.1685        -54.7688        -54.3608        -54.1261    
   3     -51.4877        -51.8795        -52.7154        -54.1214        -56.3616        -59.9811        -59.1315        -56.4309        -54.9605        -54.3052    
   4     -50.1441        -50.4625        -51.1172        -52.1416        -53.5790        -55.4555        -55.1932        -53.8497        -52.9717        -52.5409    
   5     -48.1573        -48.3342        -48.6760        -49.1508        -49.6890        -50.1466        -50.2395        -50.0572        -49.8412        -49.7089    
   6     -46.0692        -46.1537        -46.3114        -46.5181        -46.7354        -46.9130        -47.0041        -47.0159        -46.9914        -46.9686    
   7     -44.2232        -44.2621        -44.3341        -44.4273        -44.5256        -44.6115        -44.6723        -44.7063        -44.7209        -44.7254    
   8     -42.7791        -42.7976        -42.8321        -42.8772        -42.9262        -42.9720        -43.0095        -43.0363        -43.0529        -43.0608    
   9     -41.7999        -41.8099        -41.8285        -41.8531        -41.8806        -41.9074        -41.9310        -41.9494        -41.9619        -41.9682    
  10     -41.3073        -41.3139        -41.3264        -41.3431        -41.3620        -41.3812        -41.3986        -41.4127        -41.4227        -41.4278    

 HEAD WILL BE SAVED ON UNIT 1022 AT END OF TIME STEP    6, STRESS PERIOD   26


  VOLUME BUDGET FOR ENTIRE MODEL AT END OF TIME STEP    6, STRESS PERIOD  26
  ---------------------------------------------------------------------------------------------------

     CUMULATIVE VOLUME      L**3       RATES FOR THIS TIME STEP      L**3/T          PACKAGE NAME    
     ------------------                 ------------------------                     ----------------

           IN:                                      IN:
           ---                                      ---
              STO-SS =           0.0000                STO-SS =           0.0000     STORAGE                          
      CSUB-CGELASTIC =     7001575.0963        CSUB-CGELASTIC =         308.6295     CSUB                             
        CSUB-ELASTIC =     1630915.6511          CSUB-ELASTIC =           4.8888     CSUB                             
      CSUB-INELASTIC =   175149675.5442        CSUB-INELASTIC =       15386.2086     CSUB                             
      CSUB-WATERCOMP =           0.0000        CSUB-WATERCOMP =           0.0000     CSUB                             
                 WEL =           0.0000                   WEL =           0.0000     WEL_0                            
                RCHA =   216985500.0000                  RCHA =       27000.0000     RCHA_0                           
                 CHD =     5354166.1556                   CHD =         381.8790     CHD_0                            

            TOTAL IN =   406121832.4472              TOTAL IN =       43081.6059

          OUT:                                     OUT:
          ----                                     ----
              STO-SS =           0.0000                STO-SS =           0.0000     STORAGE                          
      CSUB-CGELASTIC =      548112.8185        CSUB-CGELASTIC =           0.0000     CSUB                             
        CSUB-ELASTIC =      244061.3137          CSUB-ELASTIC =           0.0000     CSUB                             
      CSUB-INELASTIC =           0.0000        CSUB-INELASTIC =           0.0000     CSUB                             
      CSUB-WATERCOMP =           0.0000        CSUB-WATERCOMP =           0.0000     CSUB                             
                 WEL =   273937500.0000                   WEL =       30000.0000     WEL_0                            
                RCHA =           0.0000                  RCHA =           0.0000     RCHA_0                           
                 CHD =   131392158.3093                   CHD =       13081.6059     CHD_0                            

           TOTAL OUT =   406121832.4415             TOTAL OUT =       43081.6059

            IN - OUT =       5.7198E-03              IN - OUT =       7.2647E-07

 PERCENT DISCREPANCY =           0.00     PERCENT DISCREPANCY =           0.00




         TIME SUMMARY AT END OF TIME STEP    6 IN STRESS PERIOD   26
                    SECONDS     MINUTES      HOURS       DAYS        YEARS
                    -----------------------------------------------------------
   TIME STEP LENGTH 9.18555E+06 1.53093E+05  2551.5      106.31     0.29107    
 STRESS PERIOD TIME 3.15576E+07 5.25960E+05  8766.0      365.25      1.0000    
         TOTAL TIME 7.89026E+08 1.31504E+07 2.19174E+05  9132.2      25.003    


end timestep


start timestep kper="27" kstp="1" mode="normal"


 OUTPUT CONTROL FOR STRESS PERIOD 27 IS REPEATED USING SETTINGS FROM A PREVIOUS STRESS PERIOD.


 STRESS PERIOD 27 IS TRANSIENT


 REUSING CSUBS FROM LAST STRESS PERIOD

 REUSING WELS FROM LAST STRESS PERIOD

 REUSING RCHS FROM LAST STRESS PERIOD

 REUSING CHDS FROM LAST STRESS PERIOD

end timestep


start timestep kper="27" kstp="2" mode="normal"


end timestep


start timestep kper="27" kstp="3" mode="normal"


end timestep


start timestep kper="27" kstp="4" mode="normal"


end timestep


start timestep kper="27" kstp="5" mode="normal"


end timestep


start timestep kper="27" kstp="6" mode="normal"

 UBDSV1 SAVING  CSUB-CGELASTIC  ON UNIT   1021 AT TIME STEP      6, STRESS PERIOD     27
 UBDSV06 SAVING    CSUB-ELASTIC  IN MODEL CSUB_SUB03A      PACKAGE CSUB_SUB03A     CONNECTED TO MODEL CSUB_SUB03A      PACKAGE CSUB             ON UNIT   1021 AT TIME STEP      6, STRESS PERIOD     27
 UBDSV06 SAVING  CSUB-INELASTIC  IN MODEL CSUB_SUB03A      PACKAGE CSUB_SUB03A     CONNECTED TO MODEL CSUB_SUB03A      PACKAGE CSUB             ON UNIT   1021 AT TIME STEP      6, STRESS PERIOD     27
 UBDSV1 SAVING  CSUB-WATERCOMP  ON UNIT   1021 AT TIME STEP      6, STRESS PERIOD     27

 WEL PACKAGE (WEL_0) FLOW RATES   PERIOD     27   STEP        6
 -----------------------------------------------
   NUMBER   CELLID                    RATE      
 -----------------------------------------------
     1      (3,3,6)              -14000.000     
     2      (3,3,7)              -8000.0000     
     3      (3,4,6)              -5000.0000     
     4      (3,4,7)              -3000.0000     
 -----------------------------------------------




 CSUB-COMPACTION WILL BE SAVED ON UNIT 1017 AT END OF TIME STEP    6, STRESS PERIOD   27
1
  HEAD IN LAYER   1 AT END OF TIME STEP   6 IN STRESS PERIOD   27
  ---------------------------------------------------------------------------

                1               2               3               4               5               6               7               8               9              10
 ................................................................................................................................................................
   1      15.9918         15.5609         14.7439         14.2169         13.9431         13.9088         14.1166         14.5866         15.3608         15.7687    
   2      14.9067         14.2941         13.7680         13.3843         13.1651         13.1190         13.2490         13.5525         14.0150         14.5907    
   3      13.4565         12.8598         12.4001         12.0723         11.8747         11.8069         11.8701         12.0653         12.3994         12.8999    
   4      11.5697         11.0502         10.6778         10.4156         10.2468         10.1619         10.1525         10.2051         10.2969         10.3858    
   5      8.92589         8.81537         8.67764         8.55087         8.45240         8.38873         8.35930         8.35770         8.37231         8.38756    
   6      6.87404         6.83894         6.78373         6.72389         6.67104         6.63186         6.60833         6.59841         6.59718         6.59879    
   7      5.10058         5.08026         5.04576         5.00687         4.97330         4.95104         4.94181         4.94323         4.94941         4.95430    
   8      3.53612         3.50492         3.45188         3.39522         3.35720         3.34508         3.35986         3.39629         3.43430         3.45745    
   9      2.21522         2.13472         1.98993         1.82650         1.75499         1.74912         1.80899         1.96092         2.09681         2.17251    
  10      1.32768         1.13242        0.712951         0.00000         0.00000         0.00000         0.00000        0.700286         1.11121         1.30213    
1
  HEAD IN LAYER   2 AT END OF TIME STEP   6 IN STRESS PERIOD   27
  ---------------------------------------------------------------------------

                1               2               3               4               5               6               7               8               9              10
 ................................................................................................................................................................
   1     -15.9275        -15.9341        -15.9486        -15.9675        -15.9880        -16.0080        -16.0263        -16.0432        -16.0602        -16.0801    
   2     -15.9390        -15.4947        -15.8926        -16.3951        -16.8937        -17.2724        -17.2542        -16.9349        -16.5159        -16.1779    
   3     -15.9776        -15.9500        -16.5287        -17.3414        -18.4854        -20.0419        -19.6898        -18.4262        -17.4602        -16.2750    
   4     -16.0299        -16.1116        -16.5813        -17.1863        -17.9428        -18.8022        -18.7098        -18.0841        -17.4973        -16.3477    
   5     -16.0900        -16.1495        -16.3725        -16.6556        -16.9559        -17.2017        -17.2595        -17.1702        -16.9924        -16.3886    
   6     -16.1509        -16.0779        -16.1612        -16.2857        -16.4129        -16.5151        -16.5689        -16.5784        -16.5558        -16.4103    
   7     -16.2148        -16.0501        -16.0719        -16.1326        -16.1947        -16.2455        -16.2781        -16.2943        -16.3192        -16.4263    
   8     -16.2839        -16.1362        -16.1525        -16.2006        -16.2425        -16.2697        -16.2791        -16.2743        -16.2902        -16.4446    
   9     -16.3578        -16.3455        -16.4150        -16.5042        -16.5534        -16.5686        -16.5484        -16.4847        -16.4364        -16.4673    
  10     -16.4332        -16.4516        -16.4690        -16.4842        -16.4951        -16.5017        -16.5039        -16.5018        -16.4973        -16.4918    
1
  HEAD IN LAYER   3 AT END OF TIME STEP   6 IN STRESS PERIOD   27
  ---------------------------------------------------------------------------

                1               2               3               4               5               6               7               8               9              10
 ................................................................................................................................................................
   1     -52.9818        -53.1526        -53.4722        -53.8922        -54.3344        -54.6913        -54.8582        -54.8559        -54.7840        -54.7260    
   2     -52.9518        -53.2135        -53.7292        -54.4681        -55.3439        -56.1251        -56.2093        -55.8096        -55.4016        -55.1669    
   3     -52.5282        -52.9201        -53.7560        -55.1621        -57.4024        -61.0219        -60.1723        -57.4717        -56.0013        -55.3460    
   4     -51.1845        -51.5030        -52.1577        -53.1822        -54.6196        -56.4962        -56.2339        -54.8904        -54.0123        -53.5815    
   5     -49.1975        -49.3744        -49.7162        -50.1911        -50.7293        -51.1870        -51.2799        -51.0976        -50.8815        -50.7492    
   6     -47.1091        -47.1936        -47.3514        -47.5581        -47.7754        -47.9530        -48.0441        -48.0559        -48.0314        -48.0086    
   7     -45.2628        -45.3017        -45.3737        -45.4670        -45.5652        -45.6512        -45.7119        -45.7460        -45.7606        -45.7651    
   8     -43.8184        -43.8368        -43.8713        -43.9165        -43.9655        -44.0113        -44.0488        -44.0756        -44.0922        -44.1001    
   9     -42.8389        -42.8489        -42.8675        -42.8922        -42.9196        -42.9465        -42.9700        -42.9885        -43.0009        -43.0072    
  10     -42.3461        -42.3528        -42.3652        -42.3819        -42.4009        -42.4200        -42.4374        -42.4516        -42.4615        -42.4666    

 HEAD WILL BE SAVED ON UNIT 1022 AT END OF TIME STEP    6, STRESS PERIOD   27


  VOLUME BUDGET FOR ENTIRE MODEL AT END OF TIME STEP    6, STRESS PERIOD  27
  ---------------------------------------------------------------------------------------------------

     CUMULATIVE VOLUME      L**3       RATES FOR THIS TIME STEP      L**3/T          PACKAGE NAME    
     ------------------                 ------------------------                     ----------------

           IN:                                      IN:
           ---                                      ---
              STO-SS =           0.0000                STO-SS =           0.0000     STORAGE                          
      CSUB-CGELASTIC =     7112691.5335        CSUB-CGELASTIC =         301.3128     CSUB                             
        CSUB-ELASTIC =     1632693.5474          CSUB-ELASTIC =           4.8521     CSUB                             
      CSUB-INELASTIC =   180704688.6154        CSUB-INELASTIC =       15090.4754     CSUB                             
      CSUB-WATERCOMP =           0.0000        CSUB-WATERCOMP =           0.0000     CSUB                             
                 WEL =           0.0000                   WEL =           0.0000     WEL_0                            
                RCHA =   226847250.0000                  RCHA =       27000.0000     RCHA_0                           
                 CHD =     5496722.4933                   CHD =         395.9102     CHD_0                            

            TOTAL IN =   421794046.1897              TOTAL IN =       42792.5506

          OUT:                                     OUT:
          ----                                     ----
              STO-SS =           0.0000                STO-SS =           0.0000     STORAGE                          
      CSUB-CGELASTIC =      548112.8185        CSUB-CGELASTIC =           0.0000     CSUB                             
        CSUB-ELASTIC =      244061.3137          CSUB-ELASTIC =           0.0000     CSUB                             
      CSUB-INELASTIC =           0.0000        CSUB-INELASTIC =           0.0000     CSUB                             
      CSUB-WATERCOMP =           0.0000        CSUB-WATERCOMP =           0.0000     CSUB                             
                 WEL =   284895000.0000                   WEL =       30000.0000     WEL_0                            
                RCHA =           0.0000                  RCHA =           0.0000     RCHA_0                           
                 CHD =   136106872.0515                   CHD =       12792.5506     CHD_0                            

           TOTAL OUT =   421794046.1837             TOTAL OUT =       42792.5506

            IN - OUT =       6.0521E-03              IN - OUT =       5.9447E-07

 PERCENT DISCREPANCY =           0.00     PERCENT DISCREPANCY =           0.00




         TIME SUMMARY AT END OF TIME STEP    6 IN STRESS PERIOD   27
                    SECONDS     MINUTES      HOURS       DAYS        YEARS
                    -----------------------------------------------------------
   TIME STEP LENGTH 9.18555E+06 1.53093E+05  2551.5      106.31     0.29107    
 STRESS PERIOD TIME 3.15576E+07 5.25960E+05  8766.0      365.25      1.0000    
         TOTAL TIME 8.20584E+08 1.36764E+07 2.27940E+05  9497.5      26.003    


end timestep


start timestep kper="28" kstp="1" mode="normal"


 OUTPUT CONTROL FOR STRESS PERIOD 28 IS REPEATED USING SETTINGS FROM A PREVIOUS STRESS PERIOD.


 STRESS PERIOD 28 IS TRANSIENT


 REUSING CSUBS FROM LAST STRESS PERIOD

 REUSING WELS FROM LAST STRESS PERIOD

 REUSING RCHS FROM LAST STRESS PERIOD

 REUSING CHDS FROM LAST STRESS PERIOD

end timestep


start timestep kper="28" kstp="2" mode="normal"


end timestep


start timestep kper="28" kstp="3" mode="normal"


end timestep


start timestep kper="28" kstp="4" mode="normal"


end timestep


start timestep kper="28" kstp="5" mode="normal"


end timestep


start timestep kper="28" kstp="6" mode="normal"

 UBDSV1 SAVING  CSUB-CGELASTIC  ON UNIT   1021 AT TIME STEP      6, STRESS PERIOD     28
 UBDSV06 SAVING    CSUB-ELASTIC  IN MODEL CSUB_SUB03A      PACKAGE CSUB_SUB03A     CONNECTED TO MODEL CSUB_SUB03A      PACKAGE CSUB             ON UNIT   1021 AT TIME STEP      6, STRESS PERIOD     28
 UBDSV06 SAVING  CSUB-INELASTIC  IN MODEL CSUB_SUB03A      PACKAGE CSUB_SUB03A     CONNECTED TO MODEL CSUB_SUB03A      PACKAGE CSUB             ON UNIT   1021 AT TIME STEP      6, STRESS PERIOD     28
 UBDSV1 SAVING  CSUB-WATERCOMP  ON UNIT   1021 AT TIME STEP      6, STRESS PERIOD     28

 WEL PACKAGE (WEL_0) FLOW RATES   PERIOD     28   STEP        6
 -----------------------------------------------
   NUMBER   CELLID                    RATE      
 -----------------------------------------------
     1      (3,3,6)              -14000.000     
     2      (3,3,7)              -8000.0000     
     3      (3,4,6)              -5000.0000     
     4      (3,4,7)              -3000.0000     
 -----------------------------------------------




 CSUB-COMPACTION WILL BE SAVED ON UNIT 1017 AT END OF TIME STEP    6, STRESS PERIOD   28
1
  HEAD IN LAYER   1 AT END OF TIME STEP   6 IN STRESS PERIOD   28
  ---------------------------------------------------------------------------

                1               2               3               4               5               6               7               8               9              10
 ................................................................................................................................................................
   1      15.8470         15.4161         14.5991         14.0720         13.7983         13.7639         13.9718         14.4417         15.2160         15.6238    
   2      14.7646         14.1520         13.6259         13.2422         13.0230         12.9769         13.1069         13.4104         13.8729         14.4486    
   3      13.3200         12.7233         12.2636         11.9357         11.7381         11.6703         11.7335         11.9287         12.2628         12.7633    
   4      11.4415         10.9221         10.5496         10.2875         10.1187         10.0337         10.0242         10.0768         10.1686         10.2576    
   5      8.80900         8.69848         8.56076         8.43400         8.33554         8.27185         8.24240         8.24077         8.25536         8.27061    
   6      6.77124         6.73618         6.68105         6.62131         6.56850         6.52931         6.50572         6.49570         6.49437         6.49593    
   7      5.01459         4.99446         4.96027         4.92170         4.88832         4.86605         4.85663         4.85772         4.86358         4.86827    
   8      3.46920         3.43863         3.38663         3.33105         3.29363         3.28151         3.29567         3.33102         3.36798         3.39052    
   9      2.16800         2.08938         1.94798         1.78834         1.71841         1.71253         1.77083         1.91895         2.05146         2.12528    
  10      1.29586         1.10527        0.695847         0.00000         0.00000         0.00000         0.00000        0.683178         1.08405         1.27030    
1
  HEAD IN LAYER   2 AT END OF TIME STEP   6 IN STRESS PERIOD   28
  ---------------------------------------------------------------------------

                1               2               3               4               5               6               7               8               9              10
 ................................................................................................................................................................
   1     -16.5307        -16.5377        -16.5524        -16.5715        -16.5921        -16.6121        -16.6304        -16.6471        -16.6639        -16.6835    
   2     -16.5406        -16.0923        -16.4918        -16.9991        -17.5021        -17.8836        -17.8652        -17.5431        -17.1210        -16.7797    
   3     -16.5773        -16.5509        -17.1336        -17.9532        -19.1052        -20.6690        -20.3158        -19.0454        -18.0714        -16.8750    
   4     -16.6274        -16.7135        -17.1868        -17.7969        -18.5589        -19.4230        -19.3304        -18.7011        -18.1083        -16.9455    
   5     -16.6848        -16.7507        -16.9759        -17.2613        -17.5641        -17.8116        -17.8699        -17.7799        -17.5992        -16.9838    
   6     -16.7430        -16.6763        -16.7609        -16.8864        -17.0147        -17.1176        -17.1719        -17.1815        -17.1573        -17.0027    
   7     -16.8038        -16.6441        -16.6669        -16.7280        -16.7906        -16.8418        -16.8747        -16.8912        -16.9151        -17.0156    
   8     -16.8699        -16.7249        -16.7419        -16.7900        -16.8322        -16.8595        -16.8692        -16.8648        -16.8800        -17.0308    
   9     -16.9408        -16.9282        -16.9979        -17.0864        -17.1354        -17.1507        -17.1310        -17.0682        -17.0197        -17.0505    
  10     -17.0135        -17.0313        -17.0483        -17.0631        -17.0739        -17.0805        -17.0829        -17.0811        -17.0771        -17.0721    
1
  HEAD IN LAYER   3 AT END OF TIME STEP   6 IN STRESS PERIOD   28
  ---------------------------------------------------------------------------

                1               2               3               4               5               6               7               8               9              10
 ................................................................................................................................................................
   1     -53.9975        -54.1684        -54.4879        -54.9080        -55.3501        -55.7072        -55.8740        -55.8718        -55.7998        -55.7419    
   2     -53.9675        -54.2292        -54.7449        -55.4838        -56.3597        -57.1409        -57.2251        -56.8254        -56.4174        -56.1827    
   3     -53.5437        -53.9356        -54.7716        -56.1778        -58.4181        -62.0377        -61.1881        -58.4875        -57.0171        -56.3617    
   4     -52.1998        -52.5184        -53.1731        -54.1977        -55.6352        -57.5118        -57.2495        -55.9060        -55.0279        -54.5970    
   5     -50.2126        -50.3895        -50.7314        -51.2063        -51.7446        -52.2022        -52.2952        -52.1129        -51.8968        -51.7644    
   6     -48.1238        -48.2083        -48.3662        -48.5729        -48.7903        -48.9679        -49.0590        -49.0708        -49.0463        -49.0235    
   7     -46.2772        -46.3161        -46.3881        -46.4814        -46.5797        -46.6656        -46.7264        -46.7604        -46.7750        -46.7795    
   8     -44.8324        -44.8509        -44.8854        -44.9306        -44.9796        -45.0254        -45.0629        -45.0897        -45.1063        -45.1142    
   9     -43.8527        -43.8626        -43.8812        -43.9059        -43.9333        -43.9602        -43.9838        -44.0022        -44.0147        -44.0210    
  10     -43.3597        -43.3663        -43.3788        -43.3955        -43.4145        -43.4336        -43.4510        -43.4652        -43.4751        -43.4802    

 HEAD WILL BE SAVED ON UNIT 1022 AT END OF TIME STEP    6, STRESS PERIOD   28


  VOLUME BUDGET FOR ENTIRE MODEL AT END OF TIME STEP    6, STRESS PERIOD  28
  ---------------------------------------------------------------------------------------------------

     CUMULATIVE VOLUME      L**3       RATES FOR THIS TIME STEP      L**3/T          PACKAGE NAME    
     ------------------                 ------------------------                     ----------------

           IN:                                      IN:
           ---                                      ---
              STO-SS =           0.0000                STO-SS =           0.0000     STORAGE                          
      CSUB-CGELASTIC =     7221201.1005        CSUB-CGELASTIC =         294.2916     CSUB                             
        CSUB-ELASTIC =     1634455.9813          CSUB-ELASTIC =           4.8062     CSUB                             
      CSUB-INELASTIC =   186152230.7530        CSUB-INELASTIC =       14797.3072     CSUB                             
      CSUB-WATERCOMP =           0.0000        CSUB-WATERCOMP =           0.0000     CSUB                             
                 WEL =           0.0000                   WEL =           0.0000     WEL_0                            
                RCHA =   236709000.0000                  RCHA =       27000.0000     RCHA_0                           
                 CHD =     5644373.8196                   CHD =         409.8020     CHD_0                            

            TOTAL IN =   437361261.6544              TOTAL IN =       42506.2070

          OUT:                                     OUT:
          ----                                     ----
              STO-SS =           0.0000                STO-SS =           0.0000     STORAGE                          
      CSUB-CGELASTIC =      548112.8185        CSUB-CGELASTIC =           0.0000     CSUB                             
        CSUB-ELASTIC =      244061.3137          CSUB-ELASTIC =           0.0000     CSUB                             
      CSUB-INELASTIC =           0.0000        CSUB-INELASTIC =           0.0000     CSUB                             
      CSUB-WATERCOMP =           0.0000        CSUB-WATERCOMP =           0.0000     CSUB                             
                 WEL =   295852500.0000                   WEL =       30000.0000     WEL_0                            
                RCHA =           0.0000                  RCHA =           0.0000     RCHA_0                           
                 CHD =   140716587.5158                   CHD =       12506.2070     CHD_0                            

           TOTAL OUT =   437361261.6480             TOTAL OUT =       42506.2070

            IN - OUT =       6.4032E-03              IN - OUT =       8.1644E-07

 PERCENT DISCREPANCY =           0.00     PERCENT DISCREPANCY =           0.00




         TIME SUMMARY AT END OF TIME STEP    6 IN STRESS PERIOD   28
                    SECONDS     MINUTES      HOURS       DAYS        YEARS
                    -----------------------------------------------------------
   TIME STEP LENGTH 9.18555E+06 1.53093E+05  2551.5      106.31     0.29107    
 STRESS PERIOD TIME 3.15576E+07 5.25960E+05  8766.0      365.25      1.0000    
         TOTAL TIME 8.52142E+08 1.42024E+07 2.36706E+05  9862.8      27.003    


end timestep


start timestep kper="29" kstp="1" mode="normal"


 OUTPUT CONTROL FOR STRESS PERIOD 29 IS REPEATED USING SETTINGS FROM A PREVIOUS STRESS PERIOD.


 STRESS PERIOD 29 IS TRANSIENT


 REUSING CSUBS FROM LAST STRESS PERIOD

 REUSING WELS FROM LAST STRESS PERIOD

 REUSING RCHS FROM LAST STRESS PERIOD

 REUSING CHDS FROM LAST STRESS PERIOD

end timestep


start timestep kper="29" kstp="2" mode="normal"


end timestep


start timestep kper="29" kstp="3" mode="normal"


end timestep


start timestep kper="29" kstp="4" mode="normal"


end timestep


start timestep kper="29" kstp="5" mode="normal"


end timestep


start timestep kper="29" kstp="6" mode="normal"

 UBDSV1 SAVING  CSUB-CGELASTIC  ON UNIT   1021 AT TIME STEP      6, STRESS PERIOD     29
 UBDSV06 SAVING    CSUB-ELASTIC  IN MODEL CSUB_SUB03A      PACKAGE CSUB_SUB03A     CONNECTED TO MODEL CSUB_SUB03A      PACKAGE CSUB             ON UNIT   1021 AT TIME STEP      6, STRESS PERIOD     29
 UBDSV06 SAVING  CSUB-INELASTIC  IN MODEL CSUB_SUB03A      PACKAGE CSUB_SUB03A     CONNECTED TO MODEL CSUB_SUB03A      PACKAGE CSUB             ON UNIT   1021 AT TIME STEP      6, STRESS PERIOD     29
 UBDSV1 SAVING  CSUB-WATERCOMP  ON UNIT   1021 AT TIME STEP      6, STRESS PERIOD     29

 WEL PACKAGE (WEL_0) FLOW RATES   PERIOD     29   STEP        6
 -----------------------------------------------
   NUMBER   CELLID                    RATE      
 -----------------------------------------------
     1      (3,3,6)              -14000.000     
     2      (3,3,7)              -8000.0000     
     3      (3,4,6)              -5000.0000     
     4      (3,4,7)              -3000.0000     
 -----------------------------------------------




 CSUB-COMPACTION WILL BE SAVED ON UNIT 1017 AT END OF TIME STEP    6, STRESS PERIOD   29
1
  HEAD IN LAYER   1 AT END OF TIME STEP   6 IN STRESS PERIOD   29
  ---------------------------------------------------------------------------

                1               2               3               4               5               6               7               8               9              10
 ................................................................................................................................................................
   1      15.7037         15.2727         14.4557         13.9286         13.6549         13.6205         13.8284         14.2983         15.0726         15.4804    
   2      14.6240         14.0114         13.4853         13.1016         12.8823         12.8362         12.9662         13.2697         13.7322         14.3079    
   3      13.1850         12.5882         12.1284         11.8006         11.6029         11.5351         11.5983         11.7935         12.1276         12.6281    
   4      11.3147         10.7953         10.4228         10.1606         9.99180         9.90685         9.89735         9.94996         10.0418         10.1307    
   5      8.69333         8.58282         8.44511         8.31836         8.21990         8.15620         8.12672         8.12507         8.13964         8.15488    
   6      6.66951         6.63451         6.57947         6.51981         6.46705         6.42785         6.40420         6.39408         6.39266         6.39417    
   7      4.92951         4.90957         4.87570         4.83744         4.80426         4.78198         4.77236         4.77313         4.77867         4.78317    
   8      3.40301         3.37306         3.32209         3.26757         3.23075         3.21862         3.23218         3.26647         3.30239         3.32431    
   9      2.12130         2.04454         1.90648         1.75060         1.68223         1.67635         1.73308         1.87745         2.00661         2.07857    
  10      1.26438         1.07842        0.678931         0.00000         0.00000         0.00000         0.00000        0.666259         1.05719         1.23882    
1
  HEAD IN LAYER   2 AT END OF TIME STEP   6 IN STRESS PERIOD   29
  ---------------------------------------------------------------------------

                1               2               3               4               5               6               7               8               9              10
 ................................................................................................................................................................
   1     -17.1280        -17.1353        -17.1503        -17.1695        -17.1902        -17.2103        -17.2284        -17.2450        -17.2616        -17.2809    
   2     -17.1362        -16.6864        -17.0873        -17.5987        -18.1055        -18.4895        -18.4708        -18.1462        -17.7215        -17.3756    
   3     -17.1709        -17.1473        -17.7336        -18.5591        -19.7181        -21.2881        -20.9339        -19.6577        -18.6767        -17.4689    
   4     -17.2187        -17.3103        -17.7868        -18.4012        -19.1680        -20.0361        -19.9434        -19.3110        -18.7129        -17.5371    
   5     -17.2735        -17.3461        -17.5732        -17.8607        -18.1655        -18.4147        -18.4734        -18.3827        -18.1992        -17.5727    
   6     -17.3287        -17.2682        -17.3540        -17.4804        -17.6096        -17.7133        -17.7680        -17.7776        -17.7519        -17.5887    
   7     -17.3865        -17.2311        -17.2548        -17.3163        -17.3793        -17.4309        -17.4641        -17.4808        -17.5037        -17.5984    
   8     -17.4493        -17.3060        -17.3236        -17.3717        -17.4139        -17.4415        -17.4516        -17.4474        -17.4621        -17.6104    
   9     -17.5173        -17.5027        -17.5724        -17.6600        -17.7088        -17.7242        -17.7049        -17.6432        -17.5948        -17.6270    
  10     -17.5872        -17.6044        -17.6209        -17.6354        -17.6460        -17.6526        -17.6551        -17.6537        -17.6503        -17.6459    
1
  HEAD IN LAYER   3 AT END OF TIME STEP   6 IN STRESS PERIOD   29
  ---------------------------------------------------------------------------

                1               2               3               4               5               6               7               8               9              10
 ................................................................................................................................................................
   1     -54.9893        -55.1602        -55.4798        -55.8999        -56.3421        -56.6991        -56.8659        -56.8637        -56.7918        -56.7338    
   2     -54.9593        -55.2210        -55.7367        -56.4757        -57.3516        -58.1328        -58.2170        -57.8173        -57.4093        -57.1746    
   3     -54.5354        -54.9273        -55.7633        -57.1695        -59.4099        -63.0296        -62.1800        -59.4793        -58.0089        -57.3535    
   4     -53.1912        -53.5098        -54.1646        -55.1892        -56.6268        -58.5034        -58.2412        -56.8976        -56.0195        -55.5885    
   5     -51.2037        -51.3806        -51.7225        -52.1975        -52.7358        -53.1935        -53.2865        -53.1041        -52.8880        -52.7556    
   6     -49.1145        -49.1990        -49.3569        -49.5637        -49.7810        -49.9587        -50.0498        -50.0616        -50.0370        -50.0143    
   7     -47.2674        -47.3063        -47.3784        -47.4717        -47.5700        -47.6559        -47.7167        -47.7507        -47.7653        -47.7698    
   8     -45.8222        -45.8407        -45.8752        -45.9205        -45.9694        -46.0153        -46.0528        -46.0796        -46.0962        -46.1041    
   9     -44.8422        -44.8521        -44.8707        -44.8954        -44.9229        -44.9498        -44.9733        -44.9918        -45.0042        -45.0106    
  10     -44.3490        -44.3557        -44.3681        -44.3849        -44.4038        -44.4230        -44.4404        -44.4546        -44.4645        -44.4696    

 HEAD WILL BE SAVED ON UNIT 1022 AT END OF TIME STEP    6, STRESS PERIOD   29


  VOLUME BUDGET FOR ENTIRE MODEL AT END OF TIME STEP    6, STRESS PERIOD  29
  ---------------------------------------------------------------------------------------------------

     CUMULATIVE VOLUME      L**3       RATES FOR THIS TIME STEP      L**3/T          PACKAGE NAME    
     ------------------                 ------------------------                     ----------------

           IN:                                      IN:
           ---                                      ---
              STO-SS =           0.0000                STO-SS =           0.0000     STORAGE                          
      CSUB-CGELASTIC =     7327205.3687        CSUB-CGELASTIC =         287.5374     CSUB                             
        CSUB-ELASTIC =     1636199.9714          CSUB-ELASTIC =           4.7529     CSUB                             
      CSUB-INELASTIC =   191493351.4117        CSUB-INELASTIC =       14507.2047     CSUB                             
      CSUB-WATERCOMP =           0.0000        CSUB-WATERCOMP =           0.0000     CSUB                             
                 WEL =           0.0000                   WEL =           0.0000     WEL_0                            
                RCHA =   246570750.0000                  RCHA =       27000.0000     RCHA_0                           
                 CHD =     5797064.7683                   CHD =         423.5345     CHD_0                            

            TOTAL IN =   452824571.5201              TOTAL IN =       42223.0295

          OUT:                                     OUT:
          ----                                     ----
              STO-SS =           0.0000                STO-SS =           0.0000     STORAGE                          
      CSUB-CGELASTIC =      548112.8185        CSUB-CGELASTIC =           0.0000     CSUB                             
        CSUB-ELASTIC =      244061.3137          CSUB-ELASTIC =           0.0000     CSUB                             
      CSUB-INELASTIC =           0.0000        CSUB-INELASTIC =           0.0000     CSUB                             
      CSUB-WATERCOMP =           0.0000        CSUB-WATERCOMP =           0.0000     CSUB                             
                 WEL =   306810000.0000                   WEL =       30000.0000     WEL_0                            
                RCHA =           0.0000                  RCHA =           0.0000     RCHA_0                           
                 CHD =   145222397.3811                   CHD =       12223.0294     CHD_0                            

           TOTAL OUT =   452824571.5133             TOTAL OUT =       42223.0294

            IN - OUT =       6.7571E-03              IN - OUT =       6.6309E-07

 PERCENT DISCREPANCY =           0.00     PERCENT DISCREPANCY =           0.00




         TIME SUMMARY AT END OF TIME STEP    6 IN STRESS PERIOD   29
                    SECONDS     MINUTES      HOURS       DAYS        YEARS
                    -----------------------------------------------------------
   TIME STEP LENGTH 9.18555E+06 1.53093E+05  2551.5      106.31     0.29107    
 STRESS PERIOD TIME 3.15576E+07 5.25960E+05  8766.0      365.25      1.0000    
         TOTAL TIME 8.83699E+08 1.47283E+07 2.45472E+05  10228.      28.003    


end timestep


start timestep kper="30" kstp="1" mode="normal"


 OUTPUT CONTROL FOR STRESS PERIOD 30 IS REPEATED USING SETTINGS FROM A PREVIOUS STRESS PERIOD.


 STRESS PERIOD 30 IS TRANSIENT


 REUSING CSUBS FROM LAST STRESS PERIOD

 REUSING WELS FROM LAST STRESS PERIOD

 REUSING RCHS FROM LAST STRESS PERIOD

 REUSING CHDS FROM LAST STRESS PERIOD

end timestep


start timestep kper="30" kstp="2" mode="normal"


end timestep


start timestep kper="30" kstp="3" mode="normal"


end timestep


start timestep kper="30" kstp="4" mode="normal"


end timestep


start timestep kper="30" kstp="5" mode="normal"


end timestep


start timestep kper="30" kstp="6" mode="normal"

 UBDSV1 SAVING  CSUB-CGELASTIC  ON UNIT   1021 AT TIME STEP      6, STRESS PERIOD     30
 UBDSV06 SAVING    CSUB-ELASTIC  IN MODEL CSUB_SUB03A      PACKAGE CSUB_SUB03A     CONNECTED TO MODEL CSUB_SUB03A      PACKAGE CSUB             ON UNIT   1021 AT TIME STEP      6, STRESS PERIOD     30
 UBDSV06 SAVING  CSUB-INELASTIC  IN MODEL CSUB_SUB03A      PACKAGE CSUB_SUB03A     CONNECTED TO MODEL CSUB_SUB03A      PACKAGE CSUB             ON UNIT   1021 AT TIME STEP      6, STRESS PERIOD     30
 UBDSV1 SAVING  CSUB-WATERCOMP  ON UNIT   1021 AT TIME STEP      6, STRESS PERIOD     30

 WEL PACKAGE (WEL_0) FLOW RATES   PERIOD     30   STEP        6
 -----------------------------------------------
   NUMBER   CELLID                    RATE      
 -----------------------------------------------
     1      (3,3,6)              -14000.000     
     2      (3,3,7)              -8000.0000     
     3      (3,4,6)              -5000.0000     
     4      (3,4,7)              -3000.0000     
 -----------------------------------------------




 CSUB-COMPACTION WILL BE SAVED ON UNIT 1017 AT END OF TIME STEP    6, STRESS PERIOD   30
1
  HEAD IN LAYER   1 AT END OF TIME STEP   6 IN STRESS PERIOD   30
  ---------------------------------------------------------------------------

                1               2               3               4               5               6               7               8               9              10
 ................................................................................................................................................................
   1      15.5620         15.1311         14.3140         13.7869         13.5132         13.4788         13.6866         14.1565         14.9308         15.3387    
   2      14.4850         13.8725         13.3463         12.9626         12.7433         12.6972         12.8272         13.1307         13.5932         14.1689    
   3      13.0514         12.4547         11.9949         11.6670         11.4693         11.4015         11.4647         11.6599         11.9940         12.4945    
   4      11.1895         10.6700         10.2975         10.0353         9.86646         9.78149         9.77198         9.82459         9.91639         10.0054    
   5      8.57904         8.46854         8.33084         8.20411         8.10565         8.04193         8.01244         8.01075         8.02531         8.04054    
   6      6.56901         6.53406         6.47911         6.41953         6.36683         6.32762         6.30390         6.29369         6.29218         6.29363    
   7      4.84548         4.82572         4.79216         4.75422         4.72121         4.69893         4.68912         4.68957         4.69480         4.69911    
   8      3.33763         3.30829         3.25835         3.20488         3.16865         3.15652         3.16948         3.20272         3.23761         3.25891    
   9      2.07518         2.00026         1.86550         1.71333         1.64650         1.64063         1.69581         1.83646         1.96232         2.03244    
  10      1.23330         1.05190        0.662227         0.00000         0.00000         0.00000         0.00000        0.649551         1.03067         1.20773    
1
  HEAD IN LAYER   2 AT END OF TIME STEP   6 IN STRESS PERIOD   30
  ---------------------------------------------------------------------------

                1               2               3               4               5               6               7               8               9              10
 ................................................................................................................................................................
   1     -17.7184        -17.7260        -17.7413        -17.7607        -17.7815        -17.8015        -17.8196        -17.8361        -17.8524        -17.8714    
   2     -17.7250        -17.2758        -17.6779        -18.1928        -18.7028        -19.0890        -19.0701        -18.7434        -18.3162        -17.9645    
   3     -17.7576        -17.7383        -18.3276        -19.1583        -20.3233        -21.8986        -21.5436        -20.2624        -19.2752        -18.0558    
   4     -17.8030        -17.9009        -18.3804        -18.9984        -19.7693        -20.6409        -20.5481        -19.9130        -19.3101        -18.1216    
   5     -17.8551        -17.9347        -18.1636        -18.4529        -18.7595        -19.0100        -19.0691        -18.9779        -18.7918        -18.1545    
   6     -17.9073        -17.8528        -17.9399        -18.0670        -18.1970        -18.3013        -18.3563        -18.3660        -18.3388        -18.1675    
   7     -17.9619        -17.8104        -17.8349        -17.8967        -17.9600        -18.0120        -18.0455        -18.0623        -18.0844        -18.1741    
   8     -18.0216        -17.8789        -17.8970        -17.9450        -17.9873        -18.0151        -18.0254        -18.0216        -18.0359        -18.1828    
   9     -18.0864        -18.0687        -18.1380        -18.2247        -18.2731        -18.2886        -18.2699        -18.2092        -18.1612        -18.1963    
  10     -18.1536        -18.1703        -18.1862        -18.2004        -18.2108        -18.2174        -18.2201        -18.2191        -18.2161        -18.2124    
1
  HEAD IN LAYER   3 AT END OF TIME STEP   6 IN STRESS PERIOD   30
  ---------------------------------------------------------------------------

                1               2               3               4               5               6               7               8               9              10
 ................................................................................................................................................................
   1     -55.9582        -56.1291        -56.4487        -56.8688        -57.3110        -57.6681        -57.8349        -57.8327        -57.7608        -57.7028    
   2     -55.9281        -56.1898        -56.7055        -57.4446        -58.3205        -59.1018        -59.1860        -58.7863        -58.3783        -58.1436    
   3     -55.5040        -55.8960        -56.7320        -58.1383        -60.3788        -63.9985        -63.1489        -60.4482        -58.9777        -58.3223    
   4     -54.1596        -54.4782        -55.1331        -56.1577        -57.5953        -59.4720        -59.2098        -57.8662        -56.9880        -56.5571    
   5     -52.1717        -52.3487        -52.6906        -53.1656        -53.7039        -54.1616        -54.2546        -54.0723        -53.8562        -53.7237    
   6     -50.0821        -50.1666        -50.3245        -50.5313        -50.7487        -50.9264        -51.0175        -51.0293        -51.0047        -50.9819    
   7     -48.2346        -48.2735        -48.3455        -48.4389        -48.5372        -48.6231        -48.6839        -48.7179        -48.7325        -48.7370    
   8     -46.7889        -46.8074        -46.8419        -46.8872        -46.9362        -46.9820        -47.0195        -47.0463        -47.0629        -47.0708    
   9     -45.8085        -45.8185        -45.8371        -45.8618        -45.8892        -45.9161        -45.9397        -45.9581        -45.9706        -45.9769    
  10     -45.3152        -45.3218        -45.3343        -45.3510        -45.3700        -45.3891        -45.4065        -45.4207        -45.4307        -45.4358    

 HEAD WILL BE SAVED ON UNIT 1022 AT END OF TIME STEP    6, STRESS PERIOD   30


  VOLUME BUDGET FOR ENTIRE MODEL AT END OF TIME STEP    6, STRESS PERIOD  30
  ---------------------------------------------------------------------------------------------------

     CUMULATIVE VOLUME      L**3       RATES FOR THIS TIME STEP      L**3/T          PACKAGE NAME    
     ------------------                 ------------------------                     ----------------

           IN:                                      IN:
           ---                                      ---
              STO-SS =           0.0000                STO-SS =           0.0000     STORAGE                          
      CSUB-CGELASTIC =     7430796.4109        CSUB-CGELASTIC =         281.0257     CSUB                             
        CSUB-ELASTIC =     1637923.1116          CSUB-ELASTIC =           4.6935     CSUB                             
      CSUB-INELASTIC =   196729261.3555        CSUB-INELASTIC =       14220.5722     CSUB                             
      CSUB-WATERCOMP =           0.0000        CSUB-WATERCOMP =           0.0000     CSUB                             
                 WEL =           0.0000                   WEL =           0.0000     WEL_0                            
                RCHA =   256432500.0000                  RCHA =       27000.0000     RCHA_0                           
                 CHD =     5954733.5664                   CHD =         437.0917     CHD_0                            

            TOTAL IN =   468185214.4443              TOTAL IN =       41943.3831

          OUT:                                     OUT:
          ----                                     ----
              STO-SS =           0.0000                STO-SS =           0.0000     STORAGE                          
      CSUB-CGELASTIC =      548112.8185        CSUB-CGELASTIC =           0.0000     CSUB                             
        CSUB-ELASTIC =      244061.3137          CSUB-ELASTIC =           0.0000     CSUB                             
      CSUB-INELASTIC =           0.0000        CSUB-INELASTIC =           0.0000     CSUB                             
      CSUB-WATERCOMP =           0.0000        CSUB-WATERCOMP =           0.0000     CSUB                             
                 WEL =   317767500.0000                   WEL =       30000.0000     WEL_0                            
                RCHA =           0.0000                  RCHA =           0.0000     RCHA_0                           
                 CHD =   149625540.3050                   CHD =       11943.3831     CHD_0                            

           TOTAL OUT =   468185214.4372             TOTAL OUT =       41943.3831

            IN - OUT =       7.0949E-03              IN - OUT =       6.9344E-07

 PERCENT DISCREPANCY =           0.00     PERCENT DISCREPANCY =           0.00




         TIME SUMMARY AT END OF TIME STEP    6 IN STRESS PERIOD   30
                    SECONDS     MINUTES      HOURS       DAYS        YEARS
                    -----------------------------------------------------------
   TIME STEP LENGTH 9.18555E+06 1.53093E+05  2551.5      106.31     0.29107    
 STRESS PERIOD TIME 3.15576E+07 5.25960E+05  8766.0      365.25      1.0000    
         TOTAL TIME 9.15257E+08 1.52543E+07 2.54238E+05  10593.      29.003    


end timestep


start timestep kper="31" kstp="1" mode="normal"


 OUTPUT CONTROL FOR STRESS PERIOD 31 IS REPEATED USING SETTINGS FROM A PREVIOUS STRESS PERIOD.


 STRESS PERIOD 31 IS TRANSIENT


 REUSING CSUBS FROM LAST STRESS PERIOD

 REUSING WELS FROM LAST STRESS PERIOD

 REUSING RCHS FROM LAST STRESS PERIOD

 REUSING CHDS FROM LAST STRESS PERIOD

end timestep


start timestep kper="31" kstp="2" mode="normal"


end timestep


start timestep kper="31" kstp="3" mode="normal"


end timestep


start timestep kper="31" kstp="4" mode="normal"


end timestep


start timestep kper="31" kstp="5" mode="normal"


end timestep


start timestep kper="31" kstp="6" mode="normal"

 UBDSV1 SAVING  CSUB-CGELASTIC  ON UNIT   1021 AT TIME STEP      6, STRESS PERIOD     31
 UBDSV06 SAVING    CSUB-ELASTIC  IN MODEL CSUB_SUB03A      PACKAGE CSUB_SUB03A     CONNECTED TO MODEL CSUB_SUB03A      PACKAGE CSUB             ON UNIT   1021 AT TIME STEP      6, STRESS PERIOD     31
 UBDSV06 SAVING  CSUB-INELASTIC  IN MODEL CSUB_SUB03A      PACKAGE CSUB_SUB03A     CONNECTED TO MODEL CSUB_SUB03A      PACKAGE CSUB             ON UNIT   1021 AT TIME STEP      6, STRESS PERIOD     31
 UBDSV1 SAVING  CSUB-WATERCOMP  ON UNIT   1021 AT TIME STEP      6, STRESS PERIOD     31

 WEL PACKAGE (WEL_0) FLOW RATES   PERIOD     31   STEP        6
 -----------------------------------------------
   NUMBER   CELLID                    RATE      
 -----------------------------------------------
     1      (3,3,6)              -14000.000     
     2      (3,3,7)              -8000.0000     
     3      (3,4,6)              -5000.0000     
     4      (3,4,7)              -3000.0000     
 -----------------------------------------------




 CSUB-COMPACTION WILL BE SAVED ON UNIT 1017 AT END OF TIME STEP    6, STRESS PERIOD   31
1
  HEAD IN LAYER   1 AT END OF TIME STEP   6 IN STRESS PERIOD   31
  ---------------------------------------------------------------------------

                1               2               3               4               5               6               7               8               9              10
 ................................................................................................................................................................
   1      15.4222         14.9912         14.1742         13.6471         13.3733         13.3389         13.5468         14.0167         14.7910         15.1988    
   2      14.3479         13.7353         13.2092         12.8254         12.6061         12.5600         12.6900         12.9935         13.4560         14.0317    
   3      12.9197         12.3229         11.8631         11.5352         11.3375         11.2697         11.3328         11.5280         11.8621         12.3627    
   4      11.0658         10.5463         10.1738         9.91162         9.74276         9.65778         9.64826         9.70087         9.79268         9.88165    
   5      8.46626         8.35576         8.21808         8.09136         7.99291         7.92918         7.89966         7.89796         7.91249         7.92772    
   6      6.46985         6.43495         6.38008         6.32059         6.26794         6.22872         6.20494         6.19463         6.19304         6.19444    
   7      4.76256         4.74300         4.70974         4.67211         4.63929         4.61700         4.60699         4.60713         4.61205         4.61618    
   8      3.27314         3.24440         3.19547         3.14303         3.10738         3.09525         3.10763         3.13983         3.17371         3.19440    
   9      2.02969         1.95658         1.82508         1.67657         1.61127         1.60539         1.65905         1.79603         1.91864         1.98694    
  10      1.20265         1.02574        0.645749         0.00000         0.00000         0.00000         0.00000        0.633071         1.00451         1.17707    
1
  HEAD IN LAYER   2 AT END OF TIME STEP   6 IN STRESS PERIOD   31
  ---------------------------------------------------------------------------

                1               2               3               4               5               6               7               8               9              10
 ................................................................................................................................................................
   1     -18.3012        -18.3092        -18.3247        -18.3443        -18.3652        -18.3852        -18.4033        -18.4195        -18.4356        -18.4543    
   2     -18.3061        -17.8595        -18.2626        -18.7806        -19.2934        -19.6813        -19.6622        -19.3338        -18.9044        -18.5457    
   3     -18.3366        -18.3229        -18.9150        -19.7501        -20.9202        -22.5001        -22.1443        -20.8590        -19.8662        -18.6351    
   4     -18.3796        -18.4845        -18.9667        -19.5880        -20.3624        -21.2370        -21.1440        -20.5067        -19.8993        -18.6985    
   5     -18.4289        -18.5158        -18.7465        -19.0373        -19.3455        -19.5972        -19.6565        -19.5648        -19.3763        -18.7286    
   6     -18.4781        -18.4296        -18.5178        -18.6456        -18.7762        -18.8811        -18.9364        -18.9461        -18.9175        -18.7385    
   7     -18.5296        -18.3815        -18.4067        -18.4687        -18.5324        -18.5846        -18.6184        -18.6354        -18.6566        -18.7419    
   8     -18.5860        -18.4433        -18.4616        -18.5096        -18.5518        -18.5798        -18.5904        -18.5870        -18.6009        -18.7474    
   9     -18.6478        -18.6256        -18.6943        -18.7800        -18.8280        -18.8436        -18.8255        -18.7659        -18.7186        -18.7578    
  10     -18.7122        -18.7282        -18.7437        -18.7575        -18.7677        -18.7743        -18.7773        -18.7766        -18.7741        -18.7710    
1
  HEAD IN LAYER   3 AT END OF TIME STEP   6 IN STRESS PERIOD   31
  ---------------------------------------------------------------------------

                1               2               3               4               5               6               7               8               9              10
 ................................................................................................................................................................
   1     -56.9050        -57.0759        -57.3955        -57.8157        -58.2579        -58.6150        -58.7818        -58.7796        -58.7077        -58.6497    
   2     -56.8748        -57.1365        -57.6523        -58.3914        -59.2674        -60.0487        -60.1329        -59.7331        -59.3251        -59.0904    
   3     -56.4506        -56.8426        -57.6787        -59.0850        -61.3255        -64.9452        -64.0956        -61.3949        -59.9244        -59.2690    
   4     -55.1059        -55.4245        -56.0794        -57.1041        -58.5417        -60.4184        -60.1562        -58.8126        -57.9344        -57.5034    
   5     -53.1175        -53.2945        -53.6365        -54.1115        -54.6499        -55.1076        -55.2006        -55.0183        -54.8021        -54.6697    
   6     -51.0274        -51.1120        -51.2699        -51.4768        -51.6941        -51.8718        -51.9630        -51.9747        -51.9502        -51.9273    
   7     -49.1794        -49.2183        -49.2904        -49.3838        -49.4821        -49.5680        -49.6289        -49.6629        -49.6774        -49.6819    
   8     -47.7333        -47.7518        -47.7863        -47.8316        -47.8806        -47.9264        -47.9639        -47.9908        -48.0074        -48.0152    
   9     -46.7526        -46.7625        -46.7811        -46.8058        -46.8333        -46.8602        -46.8837        -46.9022        -46.9147        -46.9210    
  10     -46.2591        -46.2657        -46.2782        -46.2949        -46.3138        -46.3330        -46.3504        -46.3646        -46.3745        -46.3797    

 HEAD WILL BE SAVED ON UNIT 1022 AT END OF TIME STEP    6, STRESS PERIOD   31


  VOLUME BUDGET FOR ENTIRE MODEL AT END OF TIME STEP    6, STRESS PERIOD  31
  ---------------------------------------------------------------------------------------------------

     CUMULATIVE VOLUME      L**3       RATES FOR THIS TIME STEP      L**3/T          PACKAGE NAME    
     ------------------                 ------------------------                     ----------------

           IN:                                      IN:
           ---                                      ---
              STO-SS =           0.0000                STO-SS =           0.0000     STORAGE                          
      CSUB-CGELASTIC =     7532058.1446        CSUB-CGELASTIC =         274.7357     CSUB                             
        CSUB-ELASTIC =     1639623.4788          CSUB-ELASTIC =           4.6293     CSUB                             
      CSUB-INELASTIC =   201861300.8484        CSUB-INELASTIC =       13937.7327     CSUB                             
      CSUB-WATERCOMP =           0.0000        CSUB-WATERCOMP =           0.0000     CSUB                             
                 WEL =           0.0000                   WEL =           0.0000     WEL_0                            
                RCHA =   266294250.0000                  RCHA =       27000.0000     RCHA_0                           
                 CHD =     6117313.2641                   CHD =         450.4607     CHD_0                            

            TOTAL IN =   483444545.7359              TOTAL IN =       41667.5584

          OUT:                                     OUT:
          ----                                     ----
              STO-SS =           0.0000                STO-SS =           0.0000     STORAGE                          
      CSUB-CGELASTIC =      548112.8185        CSUB-CGELASTIC =           0.0000     CSUB                             
        CSUB-ELASTIC =      244061.3137          CSUB-ELASTIC =           0.0000     CSUB                             
      CSUB-INELASTIC =           0.0000        CSUB-INELASTIC =           0.0000     CSUB                             
      CSUB-WATERCOMP =           0.0000        CSUB-WATERCOMP =           0.0000     CSUB                             
                 WEL =   328725000.0000                   WEL =       30000.0000     WEL_0                            
                RCHA =           0.0000                  RCHA =           0.0000     RCHA_0                           
                 CHD =   153927371.5963                   CHD =       11667.5584     CHD_0                            

           TOTAL OUT =   483444545.7285             TOTAL OUT =       41667.5584

            IN - OUT =       7.4243E-03              IN - OUT =       6.7805E-07

 PERCENT DISCREPANCY =           0.00     PERCENT DISCREPANCY =           0.00




         TIME SUMMARY AT END OF TIME STEP    6 IN STRESS PERIOD   31
                    SECONDS     MINUTES      HOURS       DAYS        YEARS
                    -----------------------------------------------------------
   TIME STEP LENGTH 9.18555E+06 1.53093E+05  2551.5      106.31     0.29107    
 STRESS PERIOD TIME 3.15576E+07 5.25960E+05  8766.0      365.25      1.0000    
         TOTAL TIME 9.46814E+08 1.57802E+07 2.63004E+05  10958.      30.003    


end timestep


 LARGEST 20 OF 296 INTERBED STRAIN VALUES SHOWN

 CSUB PACKAGE INTERBED STRAIN SUMMARY
 ----------------------------------------------------------------------------------------------------------------------
  INTERBED   INTERBED                         INITIAL       FINAL        TOTAL                    PERCENT              
   NUMBER      TYPE    CELLID                THICKNESS    THICKNESS    COMPACTION  FINAL STRAIN  COMPACTION     FLAG   
 ----------------------------------------------------------------------------------------------------------------------
    222      no-delay  (3,3,6)               30.000       30.000       1.0466       3.48869E-02  3.4887        *>=1%   
    223      no-delay  (3,3,7)               30.000       30.000       1.0313       3.43772E-02  3.4377        *>=1%   
    224      no-delay  (3,3,8)               30.000       30.000       0.98270      3.27567E-02  3.2757        *>=1%   
    221      no-delay  (3,3,5)               30.000       30.000       0.98145      3.27151E-02  3.2715        *>=1%   
    232      no-delay  (3,4,6)               30.000       30.000       0.96511      3.21703E-02  3.2170        *>=1%   
    233      no-delay  (3,4,7)               30.000       30.000       0.96039      3.20130E-02  3.2013        *>=1%   
    213      no-delay  (3,2,7)               30.000       30.000       0.96000      3.19999E-02  3.2000        *>=1%   
    212      no-delay  (3,2,6)               30.000       30.000       0.95848      3.19494E-02  3.1949        *>=1%   
    225      no-delay  (3,3,9)               30.000       30.000       0.95623      3.18744E-02  3.1874        *>=1%   
    214      no-delay  (3,2,8)               30.000       30.000       0.95280      3.17600E-02  3.1760        *>=1%   
    215      no-delay  (3,2,9)               30.000       30.000       0.94546      3.15152E-02  3.1515        *>=1%   
    226      no-delay  (3,3,10)              30.000       30.000       0.94443      3.14811E-02  3.1481        *>=1%   
    211      no-delay  (3,2,5)               30.000       30.000       0.94442      3.14806E-02  3.1481        *>=1%   
    216      no-delay  (3,2,10)              30.000       30.000       0.94123      3.13743E-02  3.1374        *>=1%   
    220      no-delay  (3,3,4)               30.000       30.000       0.94112      3.13708E-02  3.1371        *>=1%   
    234      no-delay  (3,4,8)               30.000       30.000       0.93620      3.12068E-02  3.1207        *>=1%   
    203      no-delay  (3,1,7)               30.000       30.000       0.93568      3.11894E-02  3.1189        *>=1%   
    204      no-delay  (3,1,8)               30.000       30.000       0.93564      3.11880E-02  3.1188        *>=1%   
    205      no-delay  (3,1,9)               30.000       30.000       0.93435      3.11449E-02  3.1145        *>=1%   
    206      no-delay  (3,1,10)              30.000       30.000       0.93330      3.11101E-02  3.1110        *>=1%   
 ----------------------------------------------------------------------------------------------------------------------



 PERCENT COMPACTION IS GREATER THAN OR EQUAL TO 1 PERCENT IN 100 OF 296 INTERBED(S).
 USE THE STRAIN_CSV_INTERBED OPTION TO OUTPUT A CSV FILE WITH PERCENT COMPACTION 
 VALUES FOR ALL INTERBEDS.

 COARSE-GRAINED STORAGE PERCENT COMPACTION WAS LESS THAN 1 PERCENT IN ALL CELLS
